756
Crystal created from CIF file. Box size:   15.06159   26.30418   16.39869
O            1.692675   0.684172   4.091269
O            1.402441   0.684172   9.549789
O            1.112207   0.684172  15.008308
O            1.692675   9.452232   4.091269
O            1.402441   9.452232   9.549789
O            1.112207   9.452232  15.008308
O            1.692675  18.220292   4.091269
O            1.402441  18.220292   9.549789
O            1.112207  18.220292  15.008308
O            6.713205   0.684172   4.091269
O            6.422971   0.684172   9.549789
O            6.132737   0.684172  15.008308
O            6.713205   9.452232   4.091269
O            6.422971   9.452232   9.549789
O            6.132737   9.452232  15.008308
O            6.713205  18.220292   4.091269
O            6.422971  18.220292   9.549789
O            6.132737  18.220292  15.008308
O           11.733735   0.684172   4.091269
O           11.443501   0.684172   9.549789
O           11.153267   0.684172  15.008308
O           11.733735   9.452232   4.091269
O           11.443501   9.452232   9.549789
O           11.153267   9.452232  15.008308
O           11.733735  18.220292   4.091269
O           11.443501  18.220292   9.549789
O           11.153267  18.220292  15.008308
O            0.527356   5.068202   1.367250
O            0.237122   5.068202   6.825769
O           15.008478   5.068202  12.284289
O            0.527356  13.836262   1.367250
O            0.237122  13.836262   6.825769
O           15.008478  13.836262  12.284289
O            0.527356  22.604322   1.367250
O            0.237122  22.604322   6.825769
O           15.008478  22.604322  12.284289
O            5.547886   5.068202   1.367250
O            5.257652   5.068202   6.825769
O            4.967418   5.068202  12.284289
O            5.547886  13.836262   1.367250
O            5.257652  13.836262   6.825769
O            4.967418  13.836262  12.284289
O            5.547886  22.604322   1.367250
O            5.257652  22.604322   6.825769
O            4.967418  22.604322  12.284289
O           10.568416   5.068202   1.367250
O           10.278182   5.068202   6.825769
O            9.987948   5.068202  12.284289
O           10.568416  13.836262   1.367250
O           10.278182  13.836262   6.825769
O            9.987948  13.836262  12.284289
O           10.568416  22.604322   1.367250
O           10.278182  22.604322   6.825769
O            9.987948  22.604322  12.284289
O            3.037621   8.083888   1.367250
O            2.747387   8.083888   6.825769
O            2.457153   8.083888  12.284289
O            3.037621  16.851948   1.367250
O            2.747387  16.851948   6.825769
O            2.457153  16.851948  12.284289
O            3.037621  25.620008   1.367250
O            2.747387  25.620008   6.825769
O            2.457153  25.620008  12.284289
O            8.058151   8.083888   1.367250
O            7.767917   8.083888   6.825769
O            7.477683   8.083888  12.284289
O            8.058151  16.851948   1.367250
O            7.767917  16.851948   6.825769
O            7.477683  16.851948  12.284289
O            8.058151  25.620008   1.367250
O            7.767917  25.620008   6.825769
O            7.477683  25.620008  12.284289
O           13.078681   8.083888   1.367250
O           12.788447   8.083888   6.825769
O           12.498213   8.083888  12.284289
O           13.078681  16.851948   1.367250
O           12.788447  16.851948   6.825769
O           12.498213  16.851948  12.284289
O           13.078681  25.620008   1.367250
O           12.788447  25.620008   6.825769
O           12.498213  25.620008  12.284289
O            1.082432   7.532465   3.109227
O            0.792198   7.532465   8.567747
O            0.501964   7.532465  14.026266
O            1.082432  16.300525   3.109227
O            0.792198  16.300525   8.567747
O            0.501964  16.300525  14.026266
O            1.082432  25.068585   3.109227
O            0.792198  25.068585   8.567747
O            0.501964  25.068585  14.026266
O            6.102962   7.532465   3.109227
O            5.812728   7.532465   8.567747
O            5.522494   7.532465  14.026266
O            6.102962  16.300525   3.109227
O            5.812728  16.300525   8.567747
O            5.522494  16.300525  14.026266
O            6.102962  25.068585   3.109227
O            5.812728  25.068585   8.567747
O            5.522494  25.068585  14.026266
O           11.123492   7.532465   3.109227
O           10.833258   7.532465   8.567747
O           10.543024   7.532465  14.026266
O           11.123492  16.300525   3.109227
O           10.833258  16.300525   8.567747
O           10.543024  16.300525  14.026266
O           11.123492  25.068585   3.109227
O           10.833258  25.068585   8.567747
O           10.543024  25.068585  14.026266
O            1.137599   3.148435   2.349292
O            0.847365   3.148435   7.807812
O            0.557130   3.148435  13.266331
O            1.137599  11.916495   2.349292
O            0.847365  11.916495   7.807812
O            0.557130  11.916495  13.266331
O            1.137599  20.684555   2.349292
O            0.847365  20.684555   7.807812
O            0.557130  20.684555  13.266331
O            6.158129   3.148435   2.349292
O            5.867895   3.148435   7.807812
O            5.577660   3.148435  13.266331
O            6.158129  11.916495   2.349292
O            5.867895  11.916495   7.807812
O            5.577660  11.916495  13.266331
O            6.158129  20.684555   2.349292
O            5.867895  20.684555   7.807812
O            5.577660  20.684555  13.266331
O           11.178659   3.148435   2.349292
O           10.888425   3.148435   7.807812
O           10.598190   3.148435  13.266331
O           11.178659  11.916495   2.349292
O           10.888425  11.916495   7.807812
O           10.598190  11.916495  13.266331
O           11.178659  20.684555   2.349292
O           10.888425  20.684555   7.807812
O           10.598190  20.684555  13.266331
O            3.647864   1.235595   2.349292
O            3.357630   1.235595   7.807812
O            3.067395   1.235595  13.266331
O            3.647864  10.003655   2.349292
O            3.357630  10.003655   7.807812
O            3.067395  10.003655  13.266331
O            3.647864  18.771715   2.349292
O            3.357630  18.771715   7.807812
O            3.067395  18.771715  13.266331
O            8.668394   1.235595   2.349292
O            8.378160   1.235595   7.807812
O            8.087925   1.235595  13.266331
O            8.668394  10.003655   2.349292
O            8.378160  10.003655   7.807812
O            8.087925  10.003655  13.266331
O            8.668394  18.771715   2.349292
O            8.378160  18.771715   7.807812
O            8.087925  18.771715  13.266331
O           13.688924   1.235595   2.349292
O           13.398690   1.235595   7.807812
O           13.108455   1.235595  13.266331
O           13.688924  10.003655   2.349292
O           13.398690  10.003655   7.807812
O           13.108455  10.003655  13.266331
O           13.688924  18.771715   2.349292
O           13.398690  18.771715   7.807812
O           13.108455  18.771715  13.266331
O            4.202940   3.699858   4.091269
O            3.912706   3.699858   9.549789
O            3.622472   3.699858  15.008308
O            4.202940  12.467918   4.091269
O            3.912706  12.467918   9.549789
O            3.622472  12.467918  15.008308
O            4.202940  21.235978   4.091269
O            3.912706  21.235978   9.549789
O            3.622472  21.235978  15.008308
O            9.223470   3.699858   4.091269
O            8.933236   3.699858   9.549789
O            8.643002   3.699858  15.008308
O            9.223470  12.467918   4.091269
O            8.933236  12.467918   9.549789
O            8.643002  12.467918  15.008308
O            9.223470  21.235978   4.091269
O            8.933236  21.235978   9.549789
O            8.643002  21.235978  15.008308
O           14.244000   3.699858   4.091269
O           13.953766   3.699858   9.549789
O           13.663532   3.699858  15.008308
O           14.244000  12.467918   4.091269
O           13.953766  12.467918   9.549789
O           13.663532  12.467918  15.008308
O           14.244000  21.235978   4.091269
O           13.953766  21.235978   9.549789
O           13.663532  21.235978  15.008308
O            3.592697   5.619625   3.109227
O            3.302463   5.619625   8.567747
O            3.012229   5.619625  14.026266
O            3.592697  14.387685   3.109227
O            3.302463  14.387685   8.567747
O            3.012229  14.387685  14.026266
O            3.592697  23.155745   3.109227
O            3.302463  23.155745   8.567747
O            3.012229  23.155745  14.026266
O            8.613227   5.619625   3.109227
O            8.322993   5.619625   8.567747
O            8.032759   5.619625  14.026266
O            8.613227  14.387685   3.109227
O            8.322993  14.387685   8.567747
O            8.032759  14.387685  14.026266
O            8.613227  23.155745   3.109227
O            8.322993  23.155745   8.567747
O            8.032759  23.155745  14.026266
O           13.633757   5.619625   3.109227
O           13.343523   5.619625   8.567747
O           13.053289   5.619625  14.026266
O           13.633757  14.387685   3.109227
O           13.343523  14.387685   8.567747
O           13.053289  14.387685  14.026266
O           13.633757  23.155745   3.109227
O           13.343523  23.155745   8.567747
O           13.053289  23.155745  14.026266
H            1.813007   7.759733   2.538212
H            1.522773   7.759733   7.996731
H            1.232538   7.759733  13.455250
H            1.813007  16.527793   2.538212
H            1.522773  16.527793   7.996731
H            1.232538  16.527793  13.455250
H            1.813007  25.295853   2.538212
H            1.522773  25.295853   7.996731
H            1.232538  25.295853  13.455250
H            6.833537   7.759733   2.538212
H            6.543303   7.759733   7.996731
H            6.253068   7.759733  13.455250
H            6.833537  16.527793   2.538212
H            6.543303  16.527793   7.996731
H            6.253068  16.527793  13.455250
H            6.833537  25.295853   2.538212
H            6.543303  25.295853   7.996731
H            6.253068  25.295853  13.455250
H           11.854067   7.759733   2.538212
H           11.563833   7.759733   7.996731
H           11.273598   7.759733  13.455250
H           11.854067  16.527793   2.538212
H           11.563833  16.527793   7.996731
H           11.273598  16.527793  13.455250
H           11.854067  25.295853   2.538212
H           11.563833  25.295853   7.996731
H           11.273598  25.295853  13.455250
H            0.407024   3.375703   2.920308
H            0.116790   3.375703   8.378827
H           14.888146   3.375703  13.837347
H            0.407024  12.143763   2.920308
H            0.116790  12.143763   8.378827
H           14.888146  12.143763  13.837347
H            0.407024  20.911823   2.920308
H            0.116790  20.911823   8.378827
H           14.888146  20.911823  13.837347
H            5.427554   3.375703   2.920308
H            5.137320   3.375703   8.378827
H            4.847086   3.375703  13.837347
H            5.427554  12.143763   2.920308
H            5.137320  12.143763   8.378827
H            4.847086  12.143763  13.837347
H            5.427554  20.911823   2.920308
H            5.137320  20.911823   8.378827
H            4.847086  20.911823  13.837347
H           10.448084   3.375703   2.920308
H           10.157850   3.375703   8.378827
H            9.867616   3.375703  13.837347
H           10.448084  12.143763   2.920308
H           10.157850  12.143763   8.378827
H            9.867616  12.143763  13.837347
H           10.448084  20.911823   2.920308
H           10.157850  20.911823   8.378827
H            9.867616  20.911823  13.837347
H            2.917289   1.008327   2.920308
H            2.627055   1.008327   8.378827
H            2.336821   1.008327  13.837347
H            2.917289   9.776387   2.920308
H            2.627055   9.776387   8.378827
H            2.336821   9.776387  13.837347
H            2.917289  18.544447   2.920308
H            2.627055  18.544447   8.378827
H            2.336821  18.544447  13.837347
H            7.937819   1.008327   2.920308
H            7.647585   1.008327   8.378827
H            7.357351   1.008327  13.837347
H            7.937819   9.776387   2.920308
H            7.647585   9.776387   8.378827
H            7.357351   9.776387  13.837347
H            7.937819  18.544447   2.920308
H            7.647585  18.544447   8.378827
H            7.357351  18.544447  13.837347
H           12.958349   1.008327   2.920308
H           12.668115   1.008327   8.378827
H           12.377881   1.008327  13.837347
H           12.958349   9.776387   2.920308
H           12.668115   9.776387   8.378827
H           12.377881   9.776387  13.837347
H           12.958349  18.544447   2.920308
H           12.668115  18.544447   8.378827
H           12.377881  18.544447  13.837347
H            0.413825   7.402873   0.110808
H            0.123590   7.402873   5.569327
H           14.894946   7.402873  11.027847
H            0.413825  16.170933   0.110808
H            0.123590  16.170933   5.569327
H           14.894946  16.170933  11.027847
H            0.413825  24.938993   0.110808
H            0.123590  24.938993   5.569327
H           14.894946  24.938993  11.027847
H            5.434355   7.402873   0.110808
H            5.144120   7.402873   5.569327
H            4.853886   7.402873  11.027847
H            5.434355  16.170933   0.110808
H            5.144120  16.170933   5.569327
H            4.853886  16.170933  11.027847
H            5.434355  24.938993   0.110808
H            5.144120  24.938993   5.569327
H            4.853886  24.938993  11.027847
H           10.454885   7.402873   0.110808
H           10.164650   7.402873   5.569327
H            9.874416   7.402873  11.027847
H           10.454885  16.170933   0.110808
H           10.164650  16.170933   5.569327
H            9.874416  16.170933  11.027847
H           10.454885  24.938993   0.110808
H           10.164650  24.938993   5.569327
H            9.874416  24.938993  11.027847
H            1.806206   3.018843   5.347711
H            1.515972   3.018843  10.806231
H            1.225738   3.018843  16.264750
H            1.806206  11.786903   5.347711
H            1.515972  11.786903  10.806231
H            1.225738  11.786903  16.264750
H            1.806206  20.554963   5.347711
H            1.515972  20.554963  10.806231
H            1.225738  20.554963  16.264750
H            6.826736   3.018843   5.347711
H            6.536502   3.018843  10.806231
H            6.246268   3.018843  16.264750
H            6.826736  11.786903   5.347711
H            6.536502  11.786903  10.806231
H            6.246268  11.786903  16.264750
H            6.826736  20.554963   5.347711
H            6.536502  20.554963  10.806231
H            6.246268  20.554963  16.264750
H           11.847266   3.018843   5.347711
H           11.557032   3.018843  10.806231
H           11.266798   3.018843  16.264750
H           11.847266  11.786903   5.347711
H           11.557032  11.786903  10.806231
H           11.266798  11.786903  16.264750
H           11.847266  20.554963   5.347711
H           11.557032  20.554963  10.806231
H           11.266798  20.554963  16.264750
H            4.316471   1.365187   5.347711
H            4.026237   1.365187  10.806231
H            3.736003   1.365187  16.264750
H            4.316471  10.133247   5.347711
H            4.026237  10.133247  10.806231
H            3.736003  10.133247  16.264750
H            4.316471  18.901307   5.347711
H            4.026237  18.901307  10.806231
H            3.736003  18.901307  16.264750
H            9.337001   1.365187   5.347711
H            9.046767   1.365187  10.806231
H            8.756533   1.365187  16.264750
H            9.337001  10.133247   5.347711
H            9.046767  10.133247  10.806231
H            8.756533  10.133247  16.264750
H            9.337001  18.901307   5.347711
H            9.046767  18.901307  10.806231
H            8.756533  18.901307  16.264750
H           14.357531   1.365187   5.347711
H           14.067297   1.365187  10.806231
H           13.777063   1.365187  16.264750
H           14.357531  10.133247   5.347711
H           14.067297  10.133247  10.806231
H           13.777063  10.133247  16.264750
H           14.357531  18.901307   5.347711
H           14.067297  18.901307  10.806231
H           13.777063  18.901307  16.264750
H            4.068441   7.928957   4.507645
H            3.778207   7.928957   9.966165
H            3.487973   7.928957  15.424684
H            4.068441  16.697017   4.507645
H            3.778207  16.697017   9.966165
H            3.487973  16.697017  15.424684
H            4.068441  25.465077   4.507645
H            3.778207  25.465077   9.966165
H            3.487973  25.465077  15.424684
H            9.088971   7.928957   4.507645
H            8.798737   7.928957   9.966165
H            8.508503   7.928957  15.424684
H            9.088971  16.697017   4.507645
H            8.798737  16.697017   9.966165
H            8.508503  16.697017  15.424684
H            9.088971  25.465077   4.507645
H            8.798737  25.465077   9.966165
H            8.508503  25.465077  15.424684
H           14.109501   7.928957   4.507645
H           13.819267   7.928957   9.966165
H           13.529033   7.928957  15.424684
H           14.109501  16.697017   4.507645
H           13.819267  16.697017   9.966165
H           13.529033  16.697017  15.424684
H           14.109501  25.465077   4.507645
H           13.819267  25.465077   9.966165
H           13.529033  25.465077  15.424684
H            3.172119   3.544927   0.950874
H            2.881885   3.544927   6.409394
H            2.591651   3.544927  11.867913
H            3.172119  12.312987   0.950874
H            2.881885  12.312987   6.409394
H            2.591651  12.312987  11.867913
H            3.172119  21.081047   0.950874
H            2.881885  21.081047   6.409394
H            2.591651  21.081047  11.867913
H            8.192649   3.544927   0.950874
H            7.902415   3.544927   6.409394
H            7.612181   3.544927  11.867913
H            8.192649  12.312987   0.950874
H            7.902415  12.312987   6.409394
H            7.612181  12.312987  11.867913
H            8.192649  21.081047   0.950874
H            7.902415  21.081047   6.409394
H            7.612181  21.081047  11.867913
H           13.213179   3.544927   0.950874
H           12.922945   3.544927   6.409394
H           12.632711   3.544927  11.867913
H           13.213179  12.312987   0.950874
H           12.922945  12.312987   6.409394
H           12.632711  12.312987  11.867913
H           13.213179  21.081047   0.950874
H           12.922945  21.081047   6.409394
H           12.632711  21.081047  11.867913
H            0.661854   0.839103   0.950874
H            0.371620   0.839103   6.409394
H            0.081386   0.839103  11.867913
H            0.661854   9.607163   0.950874
H            0.371620   9.607163   6.409394
H            0.081386   9.607163  11.867913
H            0.661854  18.375223   0.950874
H            0.371620  18.375223   6.409394
H            0.081386  18.375223  11.867913
H            5.682384   0.839103   0.950874
H            5.392150   0.839103   6.409394
H            5.101916   0.839103  11.867913
H            5.682384   9.607163   0.950874
H            5.392150   9.607163   6.409394
H            5.101916   9.607163  11.867913
H            5.682384  18.375223   0.950874
H            5.392150  18.375223   6.409394
H            5.101916  18.375223  11.867913
H           10.702914   0.839103   0.950874
H           10.412680   0.839103   6.409394
H           10.122446   0.839103  11.867913
H           10.702914   9.607163   0.950874
H           10.412680   9.607163   6.409394
H           10.122446   9.607163  11.867913
H           10.702914  18.375223   0.950874
H           10.412680  18.375223   6.409394
H           10.122446  18.375223  11.867913
H            4.323272   5.392357   2.538212
H            4.033038   5.392357   7.996731
H            3.742803   5.392357  13.455250
H            4.323272  14.160417   2.538212
H            4.033038  14.160417   7.996731
H            3.742803  14.160417  13.455250
H            4.323272  22.928477   2.538212
H            4.033038  22.928477   7.996731
H            3.742803  22.928477  13.455250
H            9.343802   5.392357   2.538212
H            9.053568   5.392357   7.996731
H            8.763333   5.392357  13.455250
H            9.343802  14.160417   2.538212
H            9.053568  14.160417   7.996731
H            8.763333  14.160417  13.455250
H            9.343802  22.928477   2.538212
H            9.053568  22.928477   7.996731
H            8.763333  22.928477  13.455250
H           14.364332   5.392357   2.538212
H           14.074098   5.392357   7.996731
H           13.783863   5.392357  13.455250
H           14.364332  14.160417   2.538212
H           14.074098  14.160417   7.996731
H           13.783863  14.160417  13.455250
H           14.364332  22.928477   2.538212
H           14.074098  22.928477   7.996731
H           13.783863  22.928477  13.455250
H            2.924090   5.749217   0.110808
H            2.633855   5.749217   5.569327
H            2.343621   5.749217  11.027847
H            2.924090  14.517277   0.110808
H            2.633855  14.517277   5.569327
H            2.343621  14.517277  11.027847
H            2.924090  23.285337   0.110808
H            2.633855  23.285337   5.569327
H            2.343621  23.285337  11.027847
H            7.944620   5.749217   0.110808
H            7.654385   5.749217   5.569327
H            7.364151   5.749217  11.027847
H            7.944620  14.517277   0.110808
H            7.654385  14.517277   5.569327
H            7.364151  14.517277  11.027847
H            7.944620  23.285337   0.110808
H            7.654385  23.285337   5.569327
H            7.364151  23.285337  11.027847
H           12.965150   5.749217   0.110808
H           12.674915   5.749217   5.569327
H           12.384681   5.749217  11.027847
H           12.965150  14.517277   0.110808
H           12.674915  14.517277   5.569327
H           12.384681  14.517277  11.027847
H           12.965150  23.285337   0.110808
H           12.674915  23.285337   5.569327
H           12.384681  23.285337  11.027847
H            1.558176   5.223133   4.507645
H            1.267942   5.223133   9.966165
H            0.977708   5.223133  15.424684
H            1.558176  13.991193   4.507645
H            1.267942  13.991193   9.966165
H            0.977708  13.991193  15.424684
H            1.558176  22.759253   4.507645
H            1.267942  22.759253   9.966165
H            0.977708  22.759253  15.424684
H            6.578706   5.223133   4.507645
H            6.288472   5.223133   9.966165
H            5.998238   5.223133  15.424684
H            6.578706  13.991193   4.507645
H            6.288472  13.991193   9.966165
H            5.998238  13.991193  15.424684
H            6.578706  22.759253   4.507645
H            6.288472  22.759253   9.966165
H            5.998238  22.759253  15.424684
H           11.599236   5.223133   4.507645
H           11.309002   5.223133   9.966165
H           11.018768   5.223133  15.424684
H           11.599236  13.991193   4.507645
H           11.309002  13.991193   9.966165
H           11.018768  13.991193  15.424684
H           11.599236  22.759253   4.507645
H           11.309002  22.759253   9.966165
H           11.018768  22.759253  15.424684
C            0.970937   8.469595   4.032481
C            0.680702   8.469595   9.491001
C            0.390468   8.469595  14.949520
C            0.970937  17.237655   4.032481
C            0.680702  17.237655   9.491001
C            0.390468  17.237655  14.949520
C            0.970937  26.005715   4.032481
C            0.680702  26.005715   9.491001
C            0.390468  26.005715  14.949520
C            5.991467   8.469595   4.032481
C            5.701232   8.469595   9.491001
C            5.410998   8.469595  14.949520
C            5.991467  17.237655   4.032481
C            5.701232  17.237655   9.491001
C            5.410998  17.237655  14.949520
C            5.991467  26.005715   4.032481
C            5.701232  26.005715   9.491001
C            5.410998  26.005715  14.949520
C           11.011997   8.469595   4.032481
C           10.721762   8.469595   9.491001
C           10.431528   8.469595  14.949520
C           11.011997  17.237655   4.032481
C           10.721762  17.237655   9.491001
C           10.431528  17.237655  14.949520
C           11.011997  26.005715   4.032481
C           10.721762  26.005715   9.491001
C           10.431528  26.005715  14.949520
C            1.249094   4.085565   1.426038
C            0.958860   4.085565   6.884558
C            0.668626   4.085565  12.343077
C            1.249094  12.853625   1.426038
C            0.958860  12.853625   6.884558
C            0.668626  12.853625  12.343077
C            1.249094  21.621685   1.426038
C            0.958860  21.621685   6.884558
C            0.668626  21.621685  12.343077
C            6.269624   4.085565   1.426038
C            5.979390   4.085565   6.884558
C            5.689156   4.085565  12.343077
C            6.269624  12.853625   1.426038
C            5.979390  12.853625   6.884558
C            5.689156  12.853625  12.343077
C            6.269624  21.621685   1.426038
C            5.979390  21.621685   6.884558
C            5.689156  21.621685  12.343077
C           11.290154   4.085565   1.426038
C           10.999920   4.085565   6.884558
C           10.709686   4.085565  12.343077
C           11.290154  12.853625   1.426038
C           10.999920  12.853625   6.884558
C           10.709686  12.853625  12.343077
C           11.290154  21.621685   1.426038
C           10.999920  21.621685   6.884558
C           10.709686  21.621685  12.343077
C            3.759359   0.298465   1.426038
C            3.469125   0.298465   6.884558
C            3.178891   0.298465  12.343077
C            3.759359   9.066525   1.426038
C            3.469125   9.066525   6.884558
C            3.178891   9.066525  12.343077
C            3.759359  17.834585   1.426038
C            3.469125  17.834585   6.884558
C            3.178891  17.834585  12.343077
C            8.779889   0.298465   1.426038
C            8.489655   0.298465   6.884558
C            8.199421   0.298465  12.343077
C            8.779889   9.066525   1.426038
C            8.489655   9.066525   6.884558
C            8.199421   9.066525  12.343077
C            8.779889  17.834585   1.426038
C            8.489655  17.834585   6.884558
C            8.199421  17.834585  12.343077
C           13.800419   0.298465   1.426038
C           13.510185   0.298465   6.884558
C           13.219951   0.298465  12.343077
C           13.800419   9.066525   1.426038
C           13.510185   9.066525   6.884558
C           13.219951   9.066525  12.343077
C           13.800419  17.834585   1.426038
C           13.510185  17.834585   6.884558
C           13.219951  17.834585  12.343077
C           14.926307   8.177093   5.008737
C           14.636073   8.177093  10.467257
C           14.345839   8.177093  15.925776
C           14.926307  16.945153   5.008737
C           14.636073  16.945153  10.467257
C           14.345839  16.945153  15.925776
C           14.926307  25.713213   5.008737
C           14.636073  25.713213  10.467257
C           14.345839  25.713213  15.925776
C            4.885247   8.177093   5.008737
C            4.595013   8.177093  10.467257
C            4.304779   8.177093  15.925776
C            4.885247  16.945153   5.008737
C            4.595013  16.945153  10.467257
C            4.304779  16.945153  15.925776
C            4.885247  25.713213   5.008737
C            4.595013  25.713213  10.467257
C            4.304779  25.713213  15.925776
C            9.905777   8.177093   5.008737
C            9.615543   8.177093  10.467257
C            9.325309   8.177093  15.925776
C            9.905777  16.945153   5.008737
C            9.615543  16.945153  10.467257
C            9.325309  16.945153  15.925776
C            9.905777  25.713213   5.008737
C            9.615543  25.713213  10.467257
C            9.325309  25.713213  15.925776
C            2.355314   3.793063   0.449782
C            2.065080   3.793063   5.908301
C            1.774845   3.793063  11.366821
C            2.355314  12.561123   0.449782
C            2.065080  12.561123   5.908301
C            1.774845  12.561123  11.366821
C            2.355314  21.329183   0.449782
C            2.065080  21.329183   5.908301
C            1.774845  21.329183  11.366821
C            7.375844   3.793063   0.449782
C            7.085610   3.793063   5.908301
C            6.795375   3.793063  11.366821
C            7.375844  12.561123   0.449782
C            7.085610  12.561123   5.908301
C            6.795375  12.561123  11.366821
C            7.375844  21.329183   0.449782
C            7.085610  21.329183   5.908301
C            6.795375  21.329183  11.366821
C           12.396374   3.793063   0.449782
C           12.106140   3.793063   5.908301
C           11.815905   3.793063  11.366821
C           12.396374  12.561123   0.449782
C           12.106140  12.561123   5.908301
C           11.815905  12.561123  11.366821
C           12.396374  21.329183   0.449782
C           12.106140  21.329183   5.908301
C           11.815905  21.329183  11.366821
C            4.865579   0.590967   0.449782
C            4.575345   0.590967   5.908301
C            4.285110   0.590967  11.366821
C            4.865579   9.359027   0.449782
C            4.575345   9.359027   5.908301
C            4.285110   9.359027  11.366821
C            4.865579  18.127087   0.449782
C            4.575345  18.127087   5.908301
C            4.285110  18.127087  11.366821
C            9.886109   0.590967   0.449782
C            9.595875   0.590967   5.908301
C            9.305640   0.590967  11.366821
C            9.886109   9.359027   0.449782
C            9.595875   9.359027   5.908301
C            9.305640   9.359027  11.366821
C            9.886109  18.127087   0.449782
C            9.595875  18.127087   5.908301
C            9.305640  18.127087  11.366821
C           14.906639   0.590967   0.449782
C           14.616405   0.590967   5.908301
C           14.326170   0.590967  11.366821
C           14.906639   9.359027   0.449782
C           14.616405   9.359027   5.908301
C           14.326170   9.359027  11.366821
C           14.906639  18.127087   0.449782
C           14.616405  18.127087   5.908301
C           14.326170  18.127087  11.366821
C            3.481202   4.682495   4.032481
C            3.190967   4.682495   9.491001
C            2.900733   4.682495  14.949520
C            3.481202  13.450555   4.032481
C            3.190967  13.450555   9.491001
C            2.900733  13.450555  14.949520
C            3.481202  22.218615   4.032481
C            3.190967  22.218615   9.491001
C            2.900733  22.218615  14.949520
C            8.501732   4.682495   4.032481
C            8.211497   4.682495   9.491001
C            7.921263   4.682495  14.949520
C            8.501732  13.450555   4.032481
C            8.211497  13.450555   9.491001
C            7.921263  13.450555  14.949520
C            8.501732  22.218615   4.032481
C            8.211497  22.218615   9.491001
C            7.921263  22.218615  14.949520
C           13.522262   4.682495   4.032481
C           13.232027   4.682495   9.491001
C           12.941793   4.682495  14.949520
C           13.522262  13.450555   4.032481
C           13.232027  13.450555   9.491001
C           12.941793  13.450555  14.949520
C           13.522262  22.218615   4.032481
C           13.232027  22.218615   9.491001
C           12.941793  22.218615  14.949520
C            2.374982   4.974997   5.008737
C            2.084748   4.974997  10.467257
C            1.794514   4.974997  15.925776
C            2.374982  13.743057   5.008737
C            2.084748  13.743057  10.467257
C            1.794514  13.743057  15.925776
C            2.374982  22.511117   5.008737
C            2.084748  22.511117  10.467257
C            1.794514  22.511117  15.925776
C            7.395512   4.974997   5.008737
C            7.105278   4.974997  10.467257
C            6.815044   4.974997  15.925776
C            7.395512  13.743057   5.008737
C            7.105278  13.743057  10.467257
C            6.815044  13.743057  15.925776
C            7.395512  22.511117   5.008737
C            7.105278  22.511117  10.467257
C            6.815044  22.511117  15.925776
C           12.416042   4.974997   5.008737
C           12.125808   4.974997  10.467257
C           11.835574   4.974997  15.925776
C           12.416042  13.743057   5.008737
C           12.125808  13.743057  10.467257
C           11.835574  13.743057  15.925776
C           12.416042  22.511117   5.008737
C           12.125808  22.511117  10.467257
C           11.835574  22.511117  15.925776
