864
Crystal created from CIF file. Box size:   39.93030   12.27030   17.30730
O            9.943976   2.575536   3.905104
O            9.943976   2.575536   9.674204
O            9.943976   2.575536  15.443304
O            9.943976   6.665636   3.905104
O            9.943976   6.665636   9.674204
O            9.943976   6.665636  15.443304
O            9.943976  10.755736   3.905104
O            9.943976  10.755736   9.674204
O            9.943976  10.755736  15.443304
O           23.254076   2.575536   3.905104
O           23.254076   2.575536   9.674204
O           23.254076   2.575536  15.443304
O           23.254076   6.665636   3.905104
O           23.254076   6.665636   9.674204
O           23.254076   6.665636  15.443304
O           23.254076  10.755736   3.905104
O           23.254076  10.755736   9.674204
O           23.254076  10.755736  15.443304
O           36.564176   2.575536   3.905104
O           36.564176   2.575536   9.674204
O           36.564176   2.575536  15.443304
O           36.564176   6.665636   3.905104
O           36.564176   6.665636   9.674204
O           36.564176   6.665636  15.443304
O           36.564176  10.755736   3.905104
O           36.564176  10.755736   9.674204
O           36.564176  10.755736  15.443304
O           10.021174   0.530486   1.020554
O           10.021174   0.530486   6.789654
O           10.021174   0.530486  12.558754
O           10.021174   4.620586   1.020554
O           10.021174   4.620586   6.789654
O           10.021174   4.620586  12.558754
O           10.021174   8.710686   1.020554
O           10.021174   8.710686   6.789654
O           10.021174   8.710686  12.558754
O           23.331274   0.530486   1.020554
O           23.331274   0.530486   6.789654
O           23.331274   0.530486  12.558754
O           23.331274   4.620586   1.020554
O           23.331274   4.620586   6.789654
O           23.331274   4.620586  12.558754
O           23.331274   8.710686   1.020554
O           23.331274   8.710686   6.789654
O           23.331274   8.710686  12.558754
O           36.641374   0.530486   1.020554
O           36.641374   0.530486   6.789654
O           36.641374   0.530486  12.558754
O           36.641374   4.620586   1.020554
O           36.641374   4.620586   6.789654
O           36.641374   4.620586  12.558754
O           36.641374   8.710686   1.020554
O           36.641374   8.710686   6.789654
O           36.641374   8.710686  12.558754
O            3.288926   3.559614   3.905104
O            3.288926   3.559614   9.674204
O            3.288926   3.559614  15.443304
O            3.288926   7.649714   3.905104
O            3.288926   7.649714   9.674204
O            3.288926   7.649714  15.443304
O            3.288926  11.739814   3.905104
O            3.288926  11.739814   9.674204
O            3.288926  11.739814  15.443304
O           16.599026   3.559614   3.905104
O           16.599026   3.559614   9.674204
O           16.599026   3.559614  15.443304
O           16.599026   7.649714   3.905104
O           16.599026   7.649714   9.674204
O           16.599026   7.649714  15.443304
O           16.599026  11.739814   3.905104
O           16.599026  11.739814   9.674204
O           16.599026  11.739814  15.443304
O           29.909126   3.559614   3.905104
O           29.909126   3.559614   9.674204
O           29.909126   3.559614  15.443304
O           29.909126   7.649714   3.905104
O           29.909126   7.649714   9.674204
O           29.909126   7.649714  15.443304
O           29.909126  11.739814   3.905104
O           29.909126  11.739814   9.674204
O           29.909126  11.739814  15.443304
O           11.597090   3.650414   2.884550
O           11.597090   3.650414   8.653650
O           11.597090   3.650414  14.422750
O           11.597090   7.740514   2.884550
O           11.597090   7.740514   8.653650
O           11.597090   7.740514  14.422750
O           11.597090  11.830614   2.884550
O           11.597090  11.830614   8.653650
O           11.597090  11.830614  14.422750
O           24.907190   3.650414   2.884550
O           24.907190   3.650414   8.653650
O           24.907190   3.650414  14.422750
O           24.907190   7.740514   2.884550
O           24.907190   7.740514   8.653650
O           24.907190   7.740514  14.422750
O           24.907190  11.830614   2.884550
O           24.907190  11.830614   8.653650
O           24.907190  11.830614  14.422750
O           38.217290   3.650414   2.884550
O           38.217290   3.650414   8.653650
O           38.217290   3.650414  14.422750
O           38.217290   7.740514   2.884550
O           38.217290   7.740514   8.653650
O           38.217290   7.740514  14.422750
O           38.217290  11.830614   2.884550
O           38.217290  11.830614   8.653650
O           38.217290  11.830614  14.422750
O            8.368060   1.605364   0.000000
O            8.368060   1.605364   5.769100
O            8.368060   1.605364  11.538200
O            8.368060   5.695464   0.000000
O            8.368060   5.695464   5.769100
O            8.368060   5.695464  11.538200
O            8.368060   9.785564   0.000000
O            8.368060   9.785564   5.769100
O            8.368060   9.785564  11.538200
O           21.678160   1.605364   0.000000
O           21.678160   1.605364   5.769100
O           21.678160   1.605364  11.538200
O           21.678160   5.695464   0.000000
O           21.678160   5.695464   5.769100
O           21.678160   5.695464  11.538200
O           21.678160   9.785564   0.000000
O           21.678160   9.785564   5.769100
O           21.678160   9.785564  11.538200
O           34.988260   1.605364   0.000000
O           34.988260   1.605364   5.769100
O           34.988260   1.605364  11.538200
O           34.988260   5.695464   0.000000
O           34.988260   5.695464   5.769100
O           34.988260   5.695464  11.538200
O           34.988260   9.785564   0.000000
O           34.988260   9.785564   5.769100
O           34.988260   9.785564  11.538200
O            4.942040   2.484736   2.884550
O            4.942040   2.484736   8.653650
O            4.942040   2.484736  14.422750
O            4.942040   6.574836   2.884550
O            4.942040   6.574836   8.653650
O            4.942040   6.574836  14.422750
O            4.942040  10.664936   2.884550
O            4.942040  10.664936   8.653650
O            4.942040  10.664936  14.422750
O           18.252140   2.484736   2.884550
O           18.252140   2.484736   8.653650
O           18.252140   2.484736  14.422750
O           18.252140   6.574836   2.884550
O           18.252140   6.574836   8.653650
O           18.252140   6.574836  14.422750
O           18.252140  10.664936   2.884550
O           18.252140  10.664936   8.653650
O           18.252140  10.664936  14.422750
O           31.562240   2.484736   2.884550
O           31.562240   2.484736   8.653650
O           31.562240   2.484736  14.422750
O           31.562240   6.574836   2.884550
O           31.562240   6.574836   8.653650
O           31.562240   6.574836  14.422750
O           31.562240  10.664936   2.884550
O           31.562240  10.664936   8.653650
O           31.562240  10.664936  14.422750
O            3.366124   1.514564   1.020554
O            3.366124   1.514564   6.789654
O            3.366124   1.514564  12.558754
O            3.366124   5.604664   1.020554
O            3.366124   5.604664   6.789654
O            3.366124   5.604664  12.558754
O            3.366124   9.694764   1.020554
O            3.366124   9.694764   6.789654
O            3.366124   9.694764  12.558754
O           16.676224   1.514564   1.020554
O           16.676224   1.514564   6.789654
O           16.676224   1.514564  12.558754
O           16.676224   5.604664   1.020554
O           16.676224   5.604664   6.789654
O           16.676224   5.604664  12.558754
O           16.676224   9.694764   1.020554
O           16.676224   9.694764   6.789654
O           16.676224   9.694764  12.558754
O           29.986324   1.514564   1.020554
O           29.986324   1.514564   6.789654
O           29.986324   1.514564  12.558754
O           29.986324   5.604664   1.020554
O           29.986324   5.604664   6.789654
O           29.986324   5.604664  12.558754
O           29.986324   9.694764   1.020554
O           29.986324   9.694764   6.789654
O           29.986324   9.694764  12.558754
O            1.713010   0.439686   0.000000
O            1.713010   0.439686   5.769100
O            1.713010   0.439686  11.538200
O            1.713010   4.529786   0.000000
O            1.713010   4.529786   5.769100
O            1.713010   4.529786  11.538200
O            1.713010   8.619886   0.000000
O            1.713010   8.619886   5.769100
O            1.713010   8.619886  11.538200
O           15.023110   0.439686   0.000000
O           15.023110   0.439686   5.769100
O           15.023110   0.439686  11.538200
O           15.023110   4.529786   0.000000
O           15.023110   4.529786   5.769100
O           15.023110   4.529786  11.538200
O           15.023110   8.619886   0.000000
O           15.023110   8.619886   5.769100
O           15.023110   8.619886  11.538200
O           28.333210   0.439686   0.000000
O           28.333210   0.439686   5.769100
O           28.333210   0.439686  11.538200
O           28.333210   4.529786   0.000000
O           28.333210   4.529786   5.769100
O           28.333210   4.529786  11.538200
O           28.333210   8.619886   0.000000
O           28.333210   8.619886   5.769100
O           28.333210   8.619886  11.538200
H           12.604665   3.402963   5.313341
H           12.604665   3.402963  11.082441
H           12.604665   3.402963  16.851541
H           12.604665   7.493063   5.313341
H           12.604665   7.493063  11.082441
H           12.604665   7.493063  16.851541
H           12.604665  11.583163   5.313341
H           12.604665  11.583163  11.082441
H           12.604665  11.583163  16.851541
H           25.914765   3.402963   5.313341
H           25.914765   3.402963  11.082441
H           25.914765   3.402963  16.851541
H           25.914765   7.493063   5.313341
H           25.914765   7.493063  11.082441
H           25.914765   7.493063  16.851541
H           25.914765  11.583163   5.313341
H           25.914765  11.583163  11.082441
H           25.914765  11.583163  16.851541
H           39.224865   3.402963   5.313341
H           39.224865   3.402963  11.082441
H           39.224865   3.402963  16.851541
H           39.224865   7.493063   5.313341
H           39.224865   7.493063  11.082441
H           39.224865   7.493063  16.851541
H           39.224865  11.583163   5.313341
H           39.224865  11.583163  11.082441
H           39.224865  11.583163  16.851541
H            7.360485   1.357913   2.428791
H            7.360485   1.357913   8.197891
H            7.360485   1.357913  13.966991
H            7.360485   5.448013   2.428791
H            7.360485   5.448013   8.197891
H            7.360485   5.448013  13.966991
H            7.360485   9.538113   2.428791
H            7.360485   9.538113   8.197891
H            7.360485   9.538113  13.966991
H           20.670585   1.357913   2.428791
H           20.670585   1.357913   8.197891
H           20.670585   1.357913  13.966991
H           20.670585   5.448013   2.428791
H           20.670585   5.448013   8.197891
H           20.670585   5.448013  13.966991
H           20.670585   9.538113   2.428791
H           20.670585   9.538113   8.197891
H           20.670585   9.538113  13.966991
H           33.980685   1.357913   2.428791
H           33.980685   1.357913   8.197891
H           33.980685   1.357913  13.966991
H           33.980685   5.448013   2.428791
H           33.980685   5.448013   8.197891
H           33.980685   5.448013  13.966991
H           33.980685   9.538113   2.428791
H           33.980685   9.538113   8.197891
H           33.980685   9.538113  13.966991
H            5.949615   2.732187   5.313341
H            5.949615   2.732187  11.082441
H            5.949615   2.732187  16.851541
H            5.949615   6.822287   5.313341
H            5.949615   6.822287  11.082441
H            5.949615   6.822287  16.851541
H            5.949615  10.912387   5.313341
H            5.949615  10.912387  11.082441
H            5.949615  10.912387  16.851541
H           19.259715   2.732187   5.313341
H           19.259715   2.732187  11.082441
H           19.259715   2.732187  16.851541
H           19.259715   6.822287   5.313341
H           19.259715   6.822287  11.082441
H           19.259715   6.822287  16.851541
H           19.259715  10.912387   5.313341
H           19.259715  10.912387  11.082441
H           19.259715  10.912387  16.851541
H           32.569815   2.732187   5.313341
H           32.569815   2.732187  11.082441
H           32.569815   2.732187  16.851541
H           32.569815   6.822287   5.313341
H           32.569815   6.822287  11.082441
H           32.569815   6.822287  16.851541
H           32.569815  10.912387   5.313341
H           32.569815  10.912387  11.082441
H           32.569815  10.912387  16.851541
H           12.870867   1.881446   4.494129
H           12.870867   1.881446  10.263229
H           12.870867   1.881446  16.032329
H           12.870867   5.971546   4.494129
H           12.870867   5.971546  10.263229
H           12.870867   5.971546  16.032329
H           12.870867  10.061646   4.494129
H           12.870867  10.061646  10.263229
H           12.870867  10.061646  16.032329
H           26.180967   1.881446   4.494129
H           26.180967   1.881446  10.263229
H           26.180967   1.881446  16.032329
H           26.180967   5.971546   4.494129
H           26.180967   5.971546  10.263229
H           26.180967   5.971546  16.032329
H           26.180967  10.061646   4.494129
H           26.180967  10.061646  10.263229
H           26.180967  10.061646  16.032329
H           39.491067   1.881446   4.494129
H           39.491067   1.881446  10.263229
H           39.491067   1.881446  16.032329
H           39.491067   5.971546   4.494129
H           39.491067   5.971546  10.263229
H           39.491067   5.971546  16.032329
H           39.491067  10.061646   4.494129
H           39.491067  10.061646  10.263229
H           39.491067  10.061646  16.032329
H            7.094283   3.926496   1.609579
H            7.094283   3.926496   7.378679
H            7.094283   3.926496  13.147779
H            7.094283   8.016596   1.609579
H            7.094283   8.016596   7.378679
H            7.094283   8.016596  13.147779
H            7.094283  12.106696   1.609579
H            7.094283  12.106696   7.378679
H            7.094283  12.106696  13.147779
H           20.404383   3.926496   1.609579
H           20.404383   3.926496   7.378679
H           20.404383   3.926496  13.147779
H           20.404383   8.016596   1.609579
H           20.404383   8.016596   7.378679
H           20.404383   8.016596  13.147779
H           20.404383  12.106696   1.609579
H           20.404383  12.106696   7.378679
H           20.404383  12.106696  13.147779
H           33.714483   3.926496   1.609579
H           33.714483   3.926496   7.378679
H           33.714483   3.926496  13.147779
H           33.714483   8.016596   1.609579
H           33.714483   8.016596   7.378679
H           33.714483   8.016596  13.147779
H           33.714483  12.106696   1.609579
H           33.714483  12.106696   7.378679
H           33.714483  12.106696  13.147779
H            6.215817   0.163604   4.494129
H            6.215817   0.163604  10.263229
H            6.215817   0.163604  16.032329
H            6.215817   4.253704   4.494129
H            6.215817   4.253704  10.263229
H            6.215817   4.253704  16.032329
H            6.215817   8.343804   4.494129
H            6.215817   8.343804  10.263229
H            6.215817   8.343804  16.032329
H           19.525917   0.163604   4.494129
H           19.525917   0.163604  10.263229
H           19.525917   0.163604  16.032329
H           19.525917   4.253704   4.494129
H           19.525917   4.253704  10.263229
H           19.525917   4.253704  16.032329
H           19.525917   8.343804   4.494129
H           19.525917   8.343804  10.263229
H           19.525917   8.343804  16.032329
H           32.836017   0.163604   4.494129
H           32.836017   0.163604  10.263229
H           32.836017   0.163604  16.032329
H           32.836017   4.253704   4.494129
H           32.836017   4.253704  10.263229
H           32.836017   4.253704  16.032329
H           32.836017   8.343804   4.494129
H           32.836017   8.343804  10.263229
H           32.836017   8.343804  16.032329
H           11.606407   2.004149   5.717178
H           11.606407   2.004149  11.486278
H           11.606407   2.004149  17.255378
H           11.606407   6.094249   5.717178
H           11.606407   6.094249  11.486278
H           11.606407   6.094249  17.255378
H           11.606407  10.184349   5.717178
H           11.606407  10.184349  11.486278
H           11.606407  10.184349  17.255378
H           24.916507   2.004149   5.717178
H           24.916507   2.004149  11.486278
H           24.916507   2.004149  17.255378
H           24.916507   6.094249   5.717178
H           24.916507   6.094249  11.486278
H           24.916507   6.094249  17.255378
H           24.916507  10.184349   5.717178
H           24.916507  10.184349  11.486278
H           24.916507  10.184349  17.255378
H           38.226607   2.004149   5.717178
H           38.226607   2.004149  11.486278
H           38.226607   2.004149  17.255378
H           38.226607   6.094249   5.717178
H           38.226607   6.094249  11.486278
H           38.226607   6.094249  17.255378
H           38.226607  10.184349   5.717178
H           38.226607  10.184349  11.486278
H           38.226607  10.184349  17.255378
H            8.358743   4.049199   2.832628
H            8.358743   4.049199   8.601728
H            8.358743   4.049199  14.370828
H            8.358743   8.139299   2.832628
H            8.358743   8.139299   8.601728
H            8.358743   8.139299  14.370828
H            8.358743  12.229399   2.832628
H            8.358743  12.229399   8.601728
H            8.358743  12.229399  14.370828
H           21.668843   4.049199   2.832628
H           21.668843   4.049199   8.601728
H           21.668843   4.049199  14.370828
H           21.668843   8.139299   2.832628
H           21.668843   8.139299   8.601728
H           21.668843   8.139299  14.370828
H           21.668843  12.229399   2.832628
H           21.668843  12.229399   8.601728
H           21.668843  12.229399  14.370828
H           34.978943   4.049199   2.832628
H           34.978943   4.049199   8.601728
H           34.978943   4.049199  14.370828
H           34.978943   8.139299   2.832628
H           34.978943   8.139299   8.601728
H           34.978943   8.139299  14.370828
H           34.978943  12.229399   2.832628
H           34.978943  12.229399   8.601728
H           34.978943  12.229399  14.370828
H            4.951357   0.040901   5.717178
H            4.951357   0.040901  11.486278
H            4.951357   0.040901  17.255378
H            4.951357   4.131001   5.717178
H            4.951357   4.131001  11.486278
H            4.951357   4.131001  17.255378
H            4.951357   8.221101   5.717178
H            4.951357   8.221101  11.486278
H            4.951357   8.221101  17.255378
H           18.261457   0.040901   5.717178
H           18.261457   0.040901  11.486278
H           18.261457   0.040901  17.255378
H           18.261457   4.131001   5.717178
H           18.261457   4.131001  11.486278
H           18.261457   4.131001  17.255378
H           18.261457   8.221101   5.717178
H           18.261457   8.221101  11.486278
H           18.261457   8.221101  17.255378
H           31.571557   0.040901   5.717178
H           31.571557   0.040901  11.486278
H           31.571557   0.040901  17.255378
H           31.571557   4.131001   5.717178
H           31.571557   4.131001  11.486278
H           31.571557   4.131001  17.255378
H           31.571557   8.221101   5.717178
H           31.571557   8.221101  11.486278
H           31.571557   8.221101  17.255378
H           10.887662   3.881505   2.215334
H           10.887662   3.881505   7.984434
H           10.887662   3.881505  13.753534
H           10.887662   7.971605   2.215334
H           10.887662   7.971605   7.984434
H           10.887662   7.971605  13.753534
H           10.887662  12.061705   2.215334
H           10.887662  12.061705   7.984434
H           10.887662  12.061705  13.753534
H           24.197762   3.881505   2.215334
H           24.197762   3.881505   7.984434
H           24.197762   3.881505  13.753534
H           24.197762   7.971605   2.215334
H           24.197762   7.971605   7.984434
H           24.197762   7.971605  13.753534
H           24.197762  12.061705   2.215334
H           24.197762  12.061705   7.984434
H           24.197762  12.061705  13.753534
H           37.507862   3.881505   2.215334
H           37.507862   3.881505   7.984434
H           37.507862   3.881505  13.753534
H           37.507862   7.971605   2.215334
H           37.507862   7.971605   7.984434
H           37.507862   7.971605  13.753534
H           37.507862  12.061705   2.215334
H           37.507862  12.061705   7.984434
H           37.507862  12.061705  13.753534
H            9.077488   1.836455   5.099884
H            9.077488   1.836455  10.868984
H            9.077488   1.836455  16.638084
H            9.077488   5.926555   5.099884
H            9.077488   5.926555  10.868984
H            9.077488   5.926555  16.638084
H            9.077488  10.016655   5.099884
H            9.077488  10.016655  10.868984
H            9.077488  10.016655  16.638084
H           22.387588   1.836455   5.099884
H           22.387588   1.836455  10.868984
H           22.387588   1.836455  16.638084
H           22.387588   5.926555   5.099884
H           22.387588   5.926555  10.868984
H           22.387588   5.926555  16.638084
H           22.387588  10.016655   5.099884
H           22.387588  10.016655  10.868984
H           22.387588  10.016655  16.638084
H           35.697688   1.836455   5.099884
H           35.697688   1.836455  10.868984
H           35.697688   1.836455  16.638084
H           35.697688   5.926555   5.099884
H           35.697688   5.926555  10.868984
H           35.697688   5.926555  16.638084
H           35.697688  10.016655   5.099884
H           35.697688  10.016655  10.868984
H           35.697688  10.016655  16.638084
H            4.232612   2.253645   2.215334
H            4.232612   2.253645   7.984434
H            4.232612   2.253645  13.753534
H            4.232612   6.343745   2.215334
H            4.232612   6.343745   7.984434
H            4.232612   6.343745  13.753534
H            4.232612  10.433845   2.215334
H            4.232612  10.433845   7.984434
H            4.232612  10.433845  13.753534
H           17.542712   2.253645   2.215334
H           17.542712   2.253645   7.984434
H           17.542712   2.253645  13.753534
H           17.542712   6.343745   2.215334
H           17.542712   6.343745   7.984434
H           17.542712   6.343745  13.753534
H           17.542712  10.433845   2.215334
H           17.542712  10.433845   7.984434
H           17.542712  10.433845  13.753534
H           30.852812   2.253645   2.215334
H           30.852812   2.253645   7.984434
H           30.852812   2.253645  13.753534
H           30.852812   6.343745   2.215334
H           30.852812   6.343745   7.984434
H           30.852812   6.343745  13.753534
H           30.852812  10.433845   2.215334
H           30.852812  10.433845   7.984434
H           30.852812  10.433845  13.753534
H            0.705435   0.687137   2.428791
H            0.705435   0.687137   8.197891
H            0.705435   0.687137  13.966991
H            0.705435   4.777237   2.428791
H            0.705435   4.777237   8.197891
H            0.705435   4.777237  13.966991
H            0.705435   8.867337   2.428791
H            0.705435   8.867337   8.197891
H            0.705435   8.867337  13.966991
H           14.015535   0.687137   2.428791
H           14.015535   0.687137   8.197891
H           14.015535   0.687137  13.966991
H           14.015535   4.777237   2.428791
H           14.015535   4.777237   8.197891
H           14.015535   4.777237  13.966991
H           14.015535   8.867337   2.428791
H           14.015535   8.867337   8.197891
H           14.015535   8.867337  13.966991
H           27.325635   0.687137   2.428791
H           27.325635   0.687137   8.197891
H           27.325635   0.687137  13.966991
H           27.325635   4.777237   2.428791
H           27.325635   4.777237   8.197891
H           27.325635   4.777237  13.966991
H           27.325635   8.867337   2.428791
H           27.325635   8.867337   8.197891
H           27.325635   8.867337  13.966991
H            0.439233   2.208654   1.609579
H            0.439233   2.208654   7.378679
H            0.439233   2.208654  13.147779
H            0.439233   6.298754   1.609579
H            0.439233   6.298754   7.378679
H            0.439233   6.298754  13.147779
H            0.439233  10.388854   1.609579
H            0.439233  10.388854   7.378679
H            0.439233  10.388854  13.147779
H           13.749333   2.208654   1.609579
H           13.749333   2.208654   7.378679
H           13.749333   2.208654  13.147779
H           13.749333   6.298754   1.609579
H           13.749333   6.298754   7.378679
H           13.749333   6.298754  13.147779
H           13.749333  10.388854   1.609579
H           13.749333  10.388854   7.378679
H           13.749333  10.388854  13.147779
H           27.059433   2.208654   1.609579
H           27.059433   2.208654   7.378679
H           27.059433   2.208654  13.147779
H           27.059433   6.298754   1.609579
H           27.059433   6.298754   7.378679
H           27.059433   6.298754  13.147779
H           27.059433  10.388854   1.609579
H           27.059433  10.388854   7.378679
H           27.059433  10.388854  13.147779
H            1.703693   2.085951   2.832628
H            1.703693   2.085951   8.601728
H            1.703693   2.085951  14.370828
H            1.703693   6.176051   2.832628
H            1.703693   6.176051   8.601728
H            1.703693   6.176051  14.370828
H            1.703693  10.266151   2.832628
H            1.703693  10.266151   8.601728
H            1.703693  10.266151  14.370828
H           15.013793   2.085951   2.832628
H           15.013793   2.085951   8.601728
H           15.013793   2.085951  14.370828
H           15.013793   6.176051   2.832628
H           15.013793   6.176051   8.601728
H           15.013793   6.176051  14.370828
H           15.013793  10.266151   2.832628
H           15.013793  10.266151   8.601728
H           15.013793  10.266151  14.370828
H           28.323893   2.085951   2.832628
H           28.323893   2.085951   8.601728
H           28.323893   2.085951  14.370828
H           28.323893   6.176051   2.832628
H           28.323893   6.176051   8.601728
H           28.323893   6.176051  14.370828
H           28.323893  10.266151   2.832628
H           28.323893  10.266151   8.601728
H           28.323893  10.266151  14.370828
H            2.422438   0.208595   5.099884
H            2.422438   0.208595  10.868984
H            2.422438   0.208595  16.638084
H            2.422438   4.298695   5.099884
H            2.422438   4.298695  10.868984
H            2.422438   4.298695  16.638084
H            2.422438   8.388795   5.099884
H            2.422438   8.388795  10.868984
H            2.422438   8.388795  16.638084
H           15.732538   0.208595   5.099884
H           15.732538   0.208595  10.868984
H           15.732538   0.208595  16.638084
H           15.732538   4.298695   5.099884
H           15.732538   4.298695  10.868984
H           15.732538   4.298695  16.638084
H           15.732538   8.388795   5.099884
H           15.732538   8.388795  10.868984
H           15.732538   8.388795  16.638084
H           29.042638   0.208595   5.099884
H           29.042638   0.208595  10.868984
H           29.042638   0.208595  16.638084
H           29.042638   4.298695   5.099884
H           29.042638   4.298695  10.868984
H           29.042638   4.298695  16.638084
H           29.042638   8.388795   5.099884
H           29.042638   8.388795  10.868984
H           29.042638   8.388795  16.638084
C           12.120177   2.551404   4.892774
C           12.120177   2.551404  10.661874
C           12.120177   2.551404  16.430974
C           12.120177   6.641504   4.892774
C           12.120177   6.641504  10.661874
C           12.120177   6.641504  16.430974
C           12.120177  10.731604   4.892774
C           12.120177  10.731604  10.661874
C           12.120177  10.731604  16.430974
C           25.430277   2.551404   4.892774
C           25.430277   2.551404  10.661874
C           25.430277   2.551404  16.430974
C           25.430277   6.641504   4.892774
C           25.430277   6.641504  10.661874
C           25.430277   6.641504  16.430974
C           25.430277  10.731604   4.892774
C           25.430277  10.731604  10.661874
C           25.430277  10.731604  16.430974
C           38.740377   2.551404   4.892774
C           38.740377   2.551404  10.661874
C           38.740377   2.551404  16.430974
C           38.740377   6.641504   4.892774
C           38.740377   6.641504  10.661874
C           38.740377   6.641504  16.430974
C           38.740377  10.731604   4.892774
C           38.740377  10.731604  10.661874
C           38.740377  10.731604  16.430974
C            7.844973   0.506354   2.008224
C            7.844973   0.506354   7.777324
C            7.844973   0.506354  13.546424
C            7.844973   4.596454   2.008224
C            7.844973   4.596454   7.777324
C            7.844973   4.596454  13.546424
C            7.844973   8.686554   2.008224
C            7.844973   8.686554   7.777324
C            7.844973   8.686554  13.546424
C           21.155073   0.506354   2.008224
C           21.155073   0.506354   7.777324
C           21.155073   0.506354  13.546424
C           21.155073   4.596454   2.008224
C           21.155073   4.596454   7.777324
C           21.155073   4.596454  13.546424
C           21.155073   8.686554   2.008224
C           21.155073   8.686554   7.777324
C           21.155073   8.686554  13.546424
C           34.465173   0.506354   2.008224
C           34.465173   0.506354   7.777324
C           34.465173   0.506354  13.546424
C           34.465173   4.596454   2.008224
C           34.465173   4.596454   7.777324
C           34.465173   4.596454  13.546424
C           34.465173   8.686554   2.008224
C           34.465173   8.686554   7.777324
C           34.465173   8.686554  13.546424
C            5.465127   3.583746   4.892774
C            5.465127   3.583746  10.661874
C            5.465127   3.583746  16.430974
C            5.465127   7.673846   4.892774
C            5.465127   7.673846  10.661874
C            5.465127   7.673846  16.430974
C            5.465127  11.763946   4.892774
C            5.465127  11.763946  10.661874
C            5.465127  11.763946  16.430974
C           18.775227   3.583746   4.892774
C           18.775227   3.583746  10.661874
C           18.775227   3.583746  16.430974
C           18.775227   7.673846   4.892774
C           18.775227   7.673846  10.661874
C           18.775227   7.673846  16.430974
C           18.775227  11.763946   4.892774
C           18.775227  11.763946  10.661874
C           18.775227  11.763946  16.430974
C           32.085327   3.583746   4.892774
C           32.085327   3.583746  10.661874
C           32.085327   3.583746  16.430974
C           32.085327   7.673846   4.892774
C           32.085327   7.673846  10.661874
C           32.085327   7.673846  16.430974
C           32.085327  11.763946   4.892774
C           32.085327  11.763946  10.661874
C           32.085327  11.763946  16.430974
C           11.112602   2.921149   3.870489
C           11.112602   2.921149   9.639589
C           11.112602   2.921149  15.408689
C           11.112602   7.011249   3.870489
C           11.112602   7.011249   9.639589
C           11.112602   7.011249  15.408689
C           11.112602  11.101349   3.870489
C           11.112602  11.101349   9.639589
C           11.112602  11.101349  15.408689
C           24.422702   2.921149   3.870489
C           24.422702   2.921149   9.639589
C           24.422702   2.921149  15.408689
C           24.422702   7.011249   3.870489
C           24.422702   7.011249   9.639589
C           24.422702   7.011249  15.408689
C           24.422702  11.101349   3.870489
C           24.422702  11.101349   9.639589
C           24.422702  11.101349  15.408689
C           37.732802   2.921149   3.870489
C           37.732802   2.921149   9.639589
C           37.732802   2.921149  15.408689
C           37.732802   7.011249   3.870489
C           37.732802   7.011249   9.639589
C           37.732802   7.011249  15.408689
C           37.732802  11.101349   3.870489
C           37.732802  11.101349   9.639589
C           37.732802  11.101349  15.408689
C            8.852548   0.876099   0.985939
C            8.852548   0.876099   6.755039
C            8.852548   0.876099  12.524139
C            8.852548   4.966199   0.985939
C            8.852548   4.966199   6.755039
C            8.852548   4.966199  12.524139
C            8.852548   9.056299   0.985939
C            8.852548   9.056299   6.755039
C            8.852548   9.056299  12.524139
C           22.162648   0.876099   0.985939
C           22.162648   0.876099   6.755039
C           22.162648   0.876099  12.524139
C           22.162648   4.966199   0.985939
C           22.162648   4.966199   6.755039
C           22.162648   4.966199  12.524139
C           22.162648   9.056299   0.985939
C           22.162648   9.056299   6.755039
C           22.162648   9.056299  12.524139
C           35.472748   0.876099   0.985939
C           35.472748   0.876099   6.755039
C           35.472748   0.876099  12.524139
C           35.472748   4.966199   0.985939
C           35.472748   4.966199   6.755039
C           35.472748   4.966199  12.524139
C           35.472748   9.056299   0.985939
C           35.472748   9.056299   6.755039
C           35.472748   9.056299  12.524139
C            4.457552   3.214001   3.870489
C            4.457552   3.214001   9.639589
C            4.457552   3.214001  15.408689
C            4.457552   7.304101   3.870489
C            4.457552   7.304101   9.639589
C            4.457552   7.304101  15.408689
C            4.457552  11.394201   3.870489
C            4.457552  11.394201   9.639589
C            4.457552  11.394201  15.408689
C           17.767652   3.214001   3.870489
C           17.767652   3.214001   9.639589
C           17.767652   3.214001  15.408689
C           17.767652   7.304101   3.870489
C           17.767652   7.304101   9.639589
C           17.767652   7.304101  15.408689
C           17.767652  11.394201   3.870489
C           17.767652  11.394201   9.639589
C           17.767652  11.394201  15.408689
C           31.077752   3.214001   3.870489
C           31.077752   3.214001   9.639589
C           31.077752   3.214001  15.408689
C           31.077752   7.304101   3.870489
C           31.077752   7.304101   9.639589
C           31.077752   7.304101  15.408689
C           31.077752  11.394201   3.870489
C           31.077752  11.394201   9.639589
C           31.077752  11.394201  15.408689
C            1.189923   1.538696   2.008224
C            1.189923   1.538696   7.777324
C            1.189923   1.538696  13.546424
C            1.189923   5.628796   2.008224
C            1.189923   5.628796   7.777324
C            1.189923   5.628796  13.546424
C            1.189923   9.718896   2.008224
C            1.189923   9.718896   7.777324
C            1.189923   9.718896  13.546424
C           14.500023   1.538696   2.008224
C           14.500023   1.538696   7.777324
C           14.500023   1.538696  13.546424
C           14.500023   5.628796   2.008224
C           14.500023   5.628796   7.777324
C           14.500023   5.628796  13.546424
C           14.500023   9.718896   2.008224
C           14.500023   9.718896   7.777324
C           14.500023   9.718896  13.546424
C           27.810123   1.538696   2.008224
C           27.810123   1.538696   7.777324
C           27.810123   1.538696  13.546424
C           27.810123   5.628796   2.008224
C           27.810123   5.628796   7.777324
C           27.810123   5.628796  13.546424
C           27.810123   9.718896   2.008224
C           27.810123   9.718896   7.777324
C           27.810123   9.718896  13.546424
C            2.197498   1.168951   0.985939
C            2.197498   1.168951   6.755039
C            2.197498   1.168951  12.524139
C            2.197498   5.259051   0.985939
C            2.197498   5.259051   6.755039
C            2.197498   5.259051  12.524139
C            2.197498   9.349151   0.985939
C            2.197498   9.349151   6.755039
C            2.197498   9.349151  12.524139
C           15.507598   1.168951   0.985939
C           15.507598   1.168951   6.755039
C           15.507598   1.168951  12.524139
C           15.507598   5.259051   0.985939
C           15.507598   5.259051   6.755039
C           15.507598   5.259051  12.524139
C           15.507598   9.349151   0.985939
C           15.507598   9.349151   6.755039
C           15.507598   9.349151  12.524139
C           28.817698   1.168951   0.985939
C           28.817698   1.168951   6.755039
C           28.817698   1.168951  12.524139
C           28.817698   5.259051   0.985939
C           28.817698   5.259051   6.755039
C           28.817698   5.259051  12.524139
C           28.817698   9.349151   0.985939
C           28.817698   9.349151   6.755039
C           28.817698   9.349151  12.524139
