432
Crystal created from CIF file. Box size:   16.76715   16.76715   14.08422
O            2.794525   0.000000   1.895267
O            2.794525   0.000000   6.590007
O            2.794525   0.000000  11.284747
O            2.794525   5.589050   1.895267
O            2.794525   5.589050   6.590007
O            2.794525   5.589050  11.284747
O            2.794525  11.178100   1.895267
O            2.794525  11.178100   6.590007
O            2.794525  11.178100  11.284747
O            8.383575   0.000000   1.895267
O            8.383575   0.000000   6.590007
O            8.383575   0.000000  11.284747
O            8.383575   5.589050   1.895267
O            8.383575   5.589050   6.590007
O            8.383575   5.589050  11.284747
O            8.383575  11.178100   1.895267
O            8.383575  11.178100   6.590007
O            8.383575  11.178100  11.284747
O           13.972625   0.000000   1.895267
O           13.972625   0.000000   6.590007
O           13.972625   0.000000  11.284747
O           13.972625   5.589050   1.895267
O           13.972625   5.589050   6.590007
O           13.972625   5.589050  11.284747
O           13.972625  11.178100   1.895267
O           13.972625  11.178100   6.590007
O           13.972625  11.178100  11.284747
O            0.000000   2.794525   2.799473
O            0.000000   2.794525   7.494213
O            0.000000   2.794525  12.188953
O            0.000000   8.383575   2.799473
O            0.000000   8.383575   7.494213
O            0.000000   8.383575  12.188953
O            0.000000  13.972625   2.799473
O            0.000000  13.972625   7.494213
O            0.000000  13.972625  12.188953
O            5.589050   2.794525   2.799473
O            5.589050   2.794525   7.494213
O            5.589050   2.794525  12.188953
O            5.589050   8.383575   2.799473
O            5.589050   8.383575   7.494213
O            5.589050   8.383575  12.188953
O            5.589050  13.972625   2.799473
O            5.589050  13.972625   7.494213
O            5.589050  13.972625  12.188953
O           11.178100   2.794525   2.799473
O           11.178100   2.794525   7.494213
O           11.178100   2.794525  12.188953
O           11.178100   8.383575   2.799473
O           11.178100   8.383575   7.494213
O           11.178100   8.383575  12.188953
O           11.178100  13.972625   2.799473
O           11.178100  13.972625   7.494213
O           11.178100  13.972625  12.188953
N            1.985789   0.808736   3.857198
N            1.985789   0.808736   8.551938
N            1.985789   0.808736  13.246678
N            1.985789   6.397786   3.857198
N            1.985789   6.397786   8.551938
N            1.985789   6.397786  13.246678
N            1.985789  11.986836   3.857198
N            1.985789  11.986836   8.551938
N            1.985789  11.986836  13.246678
N            7.574839   0.808736   3.857198
N            7.574839   0.808736   8.551938
N            7.574839   0.808736  13.246678
N            7.574839   6.397786   3.857198
N            7.574839   6.397786   8.551938
N            7.574839   6.397786  13.246678
N            7.574839  11.986836   3.857198
N            7.574839  11.986836   8.551938
N            7.574839  11.986836  13.246678
N           13.163889   0.808736   3.857198
N           13.163889   0.808736   8.551938
N           13.163889   0.808736  13.246678
N           13.163889   6.397786   3.857198
N           13.163889   6.397786   8.551938
N           13.163889   6.397786  13.246678
N           13.163889  11.986836   3.857198
N           13.163889  11.986836   8.551938
N           13.163889  11.986836  13.246678
N            3.603261   4.780314   3.857198
N            3.603261   4.780314   8.551938
N            3.603261   4.780314  13.246678
N            3.603261  10.369364   3.857198
N            3.603261  10.369364   8.551938
N            3.603261  10.369364  13.246678
N            3.603261  15.958414   3.857198
N            3.603261  15.958414   8.551938
N            3.603261  15.958414  13.246678
N            9.192311   4.780314   3.857198
N            9.192311   4.780314   8.551938
N            9.192311   4.780314  13.246678
N            9.192311  10.369364   3.857198
N            9.192311  10.369364   8.551938
N            9.192311  10.369364  13.246678
N            9.192311  15.958414   3.857198
N            9.192311  15.958414   8.551938
N            9.192311  15.958414  13.246678
N           14.781361   4.780314   3.857198
N           14.781361   4.780314   8.551938
N           14.781361   4.780314  13.246678
N           14.781361  10.369364   3.857198
N           14.781361  10.369364   8.551938
N           14.781361  10.369364  13.246678
N           14.781361  15.958414   3.857198
N           14.781361  15.958414   8.551938
N           14.781361  15.958414  13.246678
N            4.780314   1.985789   0.837542
N            4.780314   1.985789   5.532282
N            4.780314   1.985789  10.227022
N            4.780314   7.574839   0.837542
N            4.780314   7.574839   5.532282
N            4.780314   7.574839  10.227022
N            4.780314  13.163889   0.837542
N            4.780314  13.163889   5.532282
N            4.780314  13.163889  10.227022
N           10.369364   1.985789   0.837542
N           10.369364   1.985789   5.532282
N           10.369364   1.985789  10.227022
N           10.369364   7.574839   0.837542
N           10.369364   7.574839   5.532282
N           10.369364   7.574839  10.227022
N           10.369364  13.163889   0.837542
N           10.369364  13.163889   5.532282
N           10.369364  13.163889  10.227022
N           15.958414   1.985789   0.837542
N           15.958414   1.985789   5.532282
N           15.958414   1.985789  10.227022
N           15.958414   7.574839   0.837542
N           15.958414   7.574839   5.532282
N           15.958414   7.574839  10.227022
N           15.958414  13.163889   0.837542
N           15.958414  13.163889   5.532282
N           15.958414  13.163889  10.227022
N            0.808736   3.603261   0.837542
N            0.808736   3.603261   5.532282
N            0.808736   3.603261  10.227022
N            0.808736   9.192311   0.837542
N            0.808736   9.192311   5.532282
N            0.808736   9.192311  10.227022
N            0.808736  14.781361   0.837542
N            0.808736  14.781361   5.532282
N            0.808736  14.781361  10.227022
N            6.397786   3.603261   0.837542
N            6.397786   3.603261   5.532282
N            6.397786   3.603261  10.227022
N            6.397786   9.192311   0.837542
N            6.397786   9.192311   5.532282
N            6.397786   9.192311  10.227022
N            6.397786  14.781361   0.837542
N            6.397786  14.781361   5.532282
N            6.397786  14.781361  10.227022
N           11.986836   3.603261   0.837542
N           11.986836   3.603261   5.532282
N           11.986836   3.603261  10.227022
N           11.986836   9.192311   0.837542
N           11.986836   9.192311   5.532282
N           11.986836   9.192311  10.227022
N           11.986836  14.781361   0.837542
N           11.986836  14.781361   5.532282
N           11.986836  14.781361  10.227022
H            1.996409   0.798116   0.159152
H            1.996409   0.798116   4.853892
H            1.996409   0.798116   9.548632
H            1.996409   6.387166   0.159152
H            1.996409   6.387166   4.853892
H            1.996409   6.387166   9.548632
H            1.996409  11.976216   0.159152
H            1.996409  11.976216   4.853892
H            1.996409  11.976216   9.548632
H            7.585459   0.798116   0.159152
H            7.585459   0.798116   4.853892
H            7.585459   0.798116   9.548632
H            7.585459   6.387166   0.159152
H            7.585459   6.387166   4.853892
H            7.585459   6.387166   9.548632
H            7.585459  11.976216   0.159152
H            7.585459  11.976216   4.853892
H            7.585459  11.976216   9.548632
H           13.174509   0.798116   0.159152
H           13.174509   0.798116   4.853892
H           13.174509   0.798116   9.548632
H           13.174509   6.387166   0.159152
H           13.174509   6.387166   4.853892
H           13.174509   6.387166   9.548632
H           13.174509  11.976216   0.159152
H           13.174509  11.976216   4.853892
H           13.174509  11.976216   9.548632
H            3.592641   4.790934   0.159152
H            3.592641   4.790934   4.853892
H            3.592641   4.790934   9.548632
H            3.592641  10.379984   0.159152
H            3.592641  10.379984   4.853892
H            3.592641  10.379984   9.548632
H            3.592641  15.969034   0.159152
H            3.592641  15.969034   4.853892
H            3.592641  15.969034   9.548632
H            9.181691   4.790934   0.159152
H            9.181691   4.790934   4.853892
H            9.181691   4.790934   9.548632
H            9.181691  10.379984   0.159152
H            9.181691  10.379984   4.853892
H            9.181691  10.379984   9.548632
H            9.181691  15.969034   0.159152
H            9.181691  15.969034   4.853892
H            9.181691  15.969034   9.548632
H           14.770741   4.790934   0.159152
H           14.770741   4.790934   4.853892
H           14.770741   4.790934   9.548632
H           14.770741  10.379984   0.159152
H           14.770741  10.379984   4.853892
H           14.770741  10.379984   9.548632
H           14.770741  15.969034   0.159152
H           14.770741  15.969034   4.853892
H           14.770741  15.969034   9.548632
H            1.368199   1.426326   3.359086
H            1.368199   1.426326   8.053826
H            1.368199   1.426326  12.748566
H            1.368199   7.015376   3.359086
H            1.368199   7.015376   8.053826
H            1.368199   7.015376  12.748566
H            1.368199  12.604426   3.359086
H            1.368199  12.604426   8.053826
H            1.368199  12.604426  12.748566
H            6.957249   1.426326   3.359086
H            6.957249   1.426326   8.053826
H            6.957249   1.426326  12.748566
H            6.957249   7.015376   3.359086
H            6.957249   7.015376   8.053826
H            6.957249   7.015376  12.748566
H            6.957249  12.604426   3.359086
H            6.957249  12.604426   8.053826
H            6.957249  12.604426  12.748566
H           12.546299   1.426326   3.359086
H           12.546299   1.426326   8.053826
H           12.546299   1.426326  12.748566
H           12.546299   7.015376   3.359086
H           12.546299   7.015376   8.053826
H           12.546299   7.015376  12.748566
H           12.546299  12.604426   3.359086
H           12.546299  12.604426   8.053826
H           12.546299  12.604426  12.748566
H            4.220851   4.162724   3.359086
H            4.220851   4.162724   8.053826
H            4.220851   4.162724  12.748566
H            4.220851   9.751774   3.359086
H            4.220851   9.751774   8.053826
H            4.220851   9.751774  12.748566
H            4.220851  15.340824   3.359086
H            4.220851  15.340824   8.053826
H            4.220851  15.340824  12.748566
H            9.809901   4.162724   3.359086
H            9.809901   4.162724   8.053826
H            9.809901   4.162724  12.748566
H            9.809901   9.751774   3.359086
H            9.809901   9.751774   8.053826
H            9.809901   9.751774  12.748566
H            9.809901  15.340824   3.359086
H            9.809901  15.340824   8.053826
H            9.809901  15.340824  12.748566
H           15.398951   4.162724   3.359086
H           15.398951   4.162724   8.053826
H           15.398951   4.162724  12.748566
H           15.398951   9.751774   3.359086
H           15.398951   9.751774   8.053826
H           15.398951   9.751774  12.748566
H           15.398951  15.340824   3.359086
H           15.398951  15.340824   8.053826
H           15.398951  15.340824  12.748566
H            4.790934   1.996409   4.535588
H            4.790934   1.996409   9.230328
H            4.790934   1.996409  13.925068
H            4.790934   7.585459   4.535588
H            4.790934   7.585459   9.230328
H            4.790934   7.585459  13.925068
H            4.790934  13.174509   4.535588
H            4.790934  13.174509   9.230328
H            4.790934  13.174509  13.925068
H           10.379984   1.996409   4.535588
H           10.379984   1.996409   9.230328
H           10.379984   1.996409  13.925068
H           10.379984   7.585459   4.535588
H           10.379984   7.585459   9.230328
H           10.379984   7.585459  13.925068
H           10.379984  13.174509   4.535588
H           10.379984  13.174509   9.230328
H           10.379984  13.174509  13.925068
H           15.969034   1.996409   4.535588
H           15.969034   1.996409   9.230328
H           15.969034   1.996409  13.925068
H           15.969034   7.585459   4.535588
H           15.969034   7.585459   9.230328
H           15.969034   7.585459  13.925068
H           15.969034  13.174509   4.535588
H           15.969034  13.174509   9.230328
H           15.969034  13.174509  13.925068
H            4.162724   1.368199   1.335654
H            4.162724   1.368199   6.030394
H            4.162724   1.368199  10.725134
H            4.162724   6.957249   1.335654
H            4.162724   6.957249   6.030394
H            4.162724   6.957249  10.725134
H            4.162724  12.546299   1.335654
H            4.162724  12.546299   6.030394
H            4.162724  12.546299  10.725134
H            9.751774   1.368199   1.335654
H            9.751774   1.368199   6.030394
H            9.751774   1.368199  10.725134
H            9.751774   6.957249   1.335654
H            9.751774   6.957249   6.030394
H            9.751774   6.957249  10.725134
H            9.751774  12.546299   1.335654
H            9.751774  12.546299   6.030394
H            9.751774  12.546299  10.725134
H           15.340824   1.368199   1.335654
H           15.340824   1.368199   6.030394
H           15.340824   1.368199  10.725134
H           15.340824   6.957249   1.335654
H           15.340824   6.957249   6.030394
H           15.340824   6.957249  10.725134
H           15.340824  12.546299   1.335654
H           15.340824  12.546299   6.030394
H           15.340824  12.546299  10.725134
H            0.798116   3.592641   4.535588
H            0.798116   3.592641   9.230328
H            0.798116   3.592641  13.925068
H            0.798116   9.181691   4.535588
H            0.798116   9.181691   9.230328
H            0.798116   9.181691  13.925068
H            0.798116  14.770741   4.535588
H            0.798116  14.770741   9.230328
H            0.798116  14.770741  13.925068
H            6.387166   3.592641   4.535588
H            6.387166   3.592641   9.230328
H            6.387166   3.592641  13.925068
H            6.387166   9.181691   4.535588
H            6.387166   9.181691   9.230328
H            6.387166   9.181691  13.925068
H            6.387166  14.770741   4.535588
H            6.387166  14.770741   9.230328
H            6.387166  14.770741  13.925068
H           11.976216   3.592641   4.535588
H           11.976216   3.592641   9.230328
H           11.976216   3.592641  13.925068
H           11.976216   9.181691   4.535588
H           11.976216   9.181691   9.230328
H           11.976216   9.181691  13.925068
H           11.976216  14.770741   4.535588
H           11.976216  14.770741   9.230328
H           11.976216  14.770741  13.925068
H            1.426326   4.220851   1.335654
H            1.426326   4.220851   6.030394
H            1.426326   4.220851  10.725134
H            1.426326   9.809901   1.335654
H            1.426326   9.809901   6.030394
H            1.426326   9.809901  10.725134
H            1.426326  15.398951   1.335654
H            1.426326  15.398951   6.030394
H            1.426326  15.398951  10.725134
H            7.015376   4.220851   1.335654
H            7.015376   4.220851   6.030394
H            7.015376   4.220851  10.725134
H            7.015376   9.809901   1.335654
H            7.015376   9.809901   6.030394
H            7.015376   9.809901  10.725134
H            7.015376  15.398951   1.335654
H            7.015376  15.398951   6.030394
H            7.015376  15.398951  10.725134
H           12.604426   4.220851   1.335654
H           12.604426   4.220851   6.030394
H           12.604426   4.220851  10.725134
H           12.604426   9.809901   1.335654
H           12.604426   9.809901   6.030394
H           12.604426   9.809901  10.725134
H           12.604426  15.398951   1.335654
H           12.604426  15.398951   6.030394
H           12.604426  15.398951  10.725134
C            2.794525   0.000000   3.153457
C            2.794525   0.000000   7.848197
C            2.794525   0.000000  12.542937
C            2.794525   5.589050   3.153457
C            2.794525   5.589050   7.848197
C            2.794525   5.589050  12.542937
C            2.794525  11.178100   3.153457
C            2.794525  11.178100   7.848197
C            2.794525  11.178100  12.542937
C            8.383575   0.000000   3.153457
C            8.383575   0.000000   7.848197
C            8.383575   0.000000  12.542937
C            8.383575   5.589050   3.153457
C            8.383575   5.589050   7.848197
C            8.383575   5.589050  12.542937
C            8.383575  11.178100   3.153457
C            8.383575  11.178100   7.848197
C            8.383575  11.178100  12.542937
C           13.972625   0.000000   3.153457
C           13.972625   0.000000   7.848197
C           13.972625   0.000000  12.542937
C           13.972625   5.589050   3.153457
C           13.972625   5.589050   7.848197
C           13.972625   5.589050  12.542937
C           13.972625  11.178100   3.153457
C           13.972625  11.178100   7.848197
C           13.972625  11.178100  12.542937
C            0.000000   2.794525   1.541283
C            0.000000   2.794525   6.236023
C            0.000000   2.794525  10.930763
C            0.000000   8.383575   1.541283
C            0.000000   8.383575   6.236023
C            0.000000   8.383575  10.930763
C            0.000000  13.972625   1.541283
C            0.000000  13.972625   6.236023
C            0.000000  13.972625  10.930763
C            5.589050   2.794525   1.541283
C            5.589050   2.794525   6.236023
C            5.589050   2.794525  10.930763
C            5.589050   8.383575   1.541283
C            5.589050   8.383575   6.236023
C            5.589050   8.383575  10.930763
C            5.589050  13.972625   1.541283
C            5.589050  13.972625   6.236023
C            5.589050  13.972625  10.930763
C           11.178100   2.794525   1.541283
C           11.178100   2.794525   6.236023
C           11.178100   2.794525  10.930763
C           11.178100   8.383575   1.541283
C           11.178100   8.383575   6.236023
C           11.178100   8.383575  10.930763
C           11.178100  13.972625   1.541283
C           11.178100  13.972625   6.236023
C           11.178100  13.972625  10.930763
