256
Crystal created from CIF file. Box size:   13.30000   12.42000   13.74000
O            5.942573   3.105000   0.636995
O            4.770871   3.105000   7.406339
O            5.942573   9.315000   0.636995
O            4.770871   9.315000   7.406339
O           12.592573   3.105000   0.636995
O           11.420871   3.105000   7.406339
O           12.592573   9.315000   0.636995
O           11.420871   9.315000   7.406339
O            2.608224   4.173120   2.665768
O            1.436521   4.173120   9.435111
O            2.608224  10.383120   2.665768
O            1.436521  10.383120   9.435111
O            9.258224   4.173120   2.665768
O            8.086521   4.173120   9.435111
O            9.258224  10.383120   2.665768
O            8.086521  10.383120   9.435111
O           12.835725   0.000000   6.132348
O           11.664023   0.000000  12.901692
O           12.835725   6.210000   6.132348
O           11.664023   6.210000  12.901692
O            6.185725   0.000000   6.132348
O            5.014023   0.000000  12.901692
O            6.185725   6.210000   6.132348
O            5.014023   6.210000  12.901692
O            2.870074   1.068120   4.103576
O            1.698372   1.068120  10.872920
O            2.870074   7.278120   4.103576
O            1.698372   7.278120  10.872920
O            9.520074   1.068120   4.103576
O            8.348372   1.068120  10.872920
O            9.520074   7.278120   4.103576
O            8.348372   7.278120  10.872920
H            5.141258   3.893670   2.992050
H            3.969555   3.893670   9.761394
H            5.141258  10.103670   2.992050
H            3.969555  10.103670   9.761394
H           11.791258   3.893670   2.992050
H           10.619555   3.893670   9.761394
H           11.791258  10.103670   2.992050
H           10.619555  10.103670   9.761394
H            4.976490   5.197770   4.136069
H            3.804788   5.197770  10.905413
H            4.976490  11.407770   4.136069
H            3.804788  11.407770  10.905413
H           11.626490   5.197770   4.136069
H           10.454788   5.197770  10.905413
H           11.626490  11.407770   4.136069
H           10.454788  11.407770  10.905413
H           12.818291   3.328560   5.165009
H           11.646589   3.328560  11.934353
H           12.818291   9.538560   5.165009
H           11.646589   9.538560  11.934353
H            6.168291   3.328560   5.165009
H            4.996589   3.328560  11.934353
H            6.168291   9.538560   5.165009
H            4.996589   9.538560  11.934353
H            4.903115   2.241810   4.752079
H            3.731413   2.241810  11.521423
H            4.903115   8.451810   4.752079
H            3.731413   8.451810  11.521423
H           11.553115   2.241810   4.752079
H           10.381413   2.241810  11.521423
H           11.553115   8.451810   4.752079
H           10.381413   8.451810  11.521423
H            3.778876   4.378050   0.412930
H            2.607174   4.378050   7.182274
H            3.778876  10.588050   0.412930
H            2.607174  10.588050   7.182274
H           10.428876   4.378050   0.412930
H            9.257174   4.378050   7.182274
H           10.428876  10.588050   0.412930
H            9.257174  10.588050   7.182274
H            3.529312   5.508270   6.234566
H            2.357610   5.508270  13.003909
H            3.529312  11.718270   6.234566
H            2.357610  11.718270  13.003909
H           10.179312   5.508270   6.234566
H            9.007610   5.508270  13.003909
H           10.179312  11.718270   6.234566
H            9.007610  11.718270  13.003909
H            1.859091   3.188214   5.165009
H            0.687389   3.188214  11.934353
H            1.859091   9.398214   5.165009
H            0.687389   9.398214  11.934353
H            8.509091   3.188214   5.165009
H            7.337389   3.188214  11.934353
H            8.509091   9.398214   5.165009
H            7.337389   9.398214  11.934353
H            1.529664   4.891617   4.955160
H            0.357962   4.891617  11.724503
H            1.529664  11.101617   4.955160
H            0.357962  11.101617  11.724503
H            8.179664   4.891617   4.955160
H            7.007962   4.891617  11.724503
H            8.179664  11.101617   4.955160
H            7.007962  11.101617  11.724503
H            0.337040   0.788670   3.777294
H           12.465338   0.788670  10.546637
H            0.337040   6.998670   3.777294
H           12.465338   6.998670  10.546637
H            6.987040   0.788670   3.777294
H            5.815338   0.788670  10.546637
H            6.987040   6.998670   3.777294
H            5.815338   6.998670  10.546637
H            0.501808   2.092770   2.633275
H           12.630106   2.092770   9.402618
H            0.501808   8.302770   2.633275
H           12.630106   8.302770   9.402618
H            7.151808   2.092770   2.633275
H            5.980106   2.092770   9.402618
H            7.151808   8.302770   2.633275
H            5.980106   8.302770   9.402618
H            5.960007   0.223560   1.604334
H            4.788304   0.223560   8.373678
H            5.960007   6.433560   1.604334
H            4.788304   6.433560   8.373678
H           12.610007   0.223560   1.604334
H           11.438304   0.223560   8.373678
H           12.610007   6.433560   1.604334
H           11.438304   6.433560   8.373678
H            0.575183   5.346810   2.017264
H           12.703480   5.346810   8.786608
H            0.575183  11.556810   2.017264
H           12.703480  11.556810   8.786608
H            7.225183   5.346810   2.017264
H            6.053480   5.346810   8.786608
H            7.225183  11.556810   2.017264
H            6.053480  11.556810   8.786608
H            1.699422   1.273050   6.356414
H            0.527719   1.273050  13.125757
H            1.699422   7.483050   6.356414
H            0.527719   7.483050  13.125757
H            8.349422   1.273050   6.356414
H            7.177719   1.273050  13.125757
H            8.349422   7.483050   6.356414
H            7.177719   7.483050  13.125757
H            1.948986   2.403270   0.534778
H            0.777283   2.403270   7.304122
H            1.948986   8.613270   0.534778
H            0.777283   8.613270   7.304122
H            8.598986   2.403270   0.534778
H            7.427283   2.403270   7.304122
H            8.598986   8.613270   0.534778
H            7.427283   8.613270   7.304122
H            3.619207   0.083214   1.604334
H            2.447504   0.083214   8.373678
H            3.619207   6.293214   1.604334
H            2.447504   6.293214   8.373678
H           10.269207   0.083214   1.604334
H            9.097504   0.083214   8.373678
H           10.269207   6.293214   1.604334
H            9.097504   6.293214   8.373678
H            3.948634   1.786617   1.814184
H            2.776932   1.786617   8.583528
H            3.948634   7.996617   1.814184
H            2.776932   7.996617   8.583528
H           10.598634   1.786617   1.814184
H            9.426932   1.786617   8.583528
H           10.598634   7.996617   1.814184
H            9.426932   7.996617   8.583528
C            4.657658   4.206033   3.907265
C            3.485956   4.206033  10.676609
C            4.657658  10.416033   3.907265
C            3.485956  10.416033  10.676609
C           11.307658   4.206033   3.907265
C           10.135956   4.206033  10.676609
C           11.307658  10.416033   3.907265
C           10.135956  10.416033  10.676609
C            5.109032   3.290058   5.049253
C            3.937330   3.290058  11.818597
C            5.109032   9.500058   5.049253
C            3.937330   9.500058  11.818597
C           11.759032   3.290058   5.049253
C           10.587330   3.290058  11.818597
C           11.759032   9.500058   5.049253
C           10.587330   9.500058  11.818597
C            4.396937   3.585033   6.362506
C            3.225235   3.585033  13.131850
C            4.396937   9.795033   6.362506
C            3.225235   9.795033  13.131850
C           11.046937   3.585033   6.362506
C            9.875235   3.585033  13.131850
C           11.046937   9.795033   6.362506
C            9.875235   9.795033  13.131850
C            3.196394   4.487346   6.279243
C            2.024692   4.487346  13.048587
C            3.196394  10.697346   6.279243
C            2.024692  10.697346  13.048587
C            9.846394   4.487346   6.279243
C            8.674692   4.487346  13.048587
C            9.846394  10.697346   6.279243
C            8.674692  10.697346  13.048587
C            2.342002   4.185540   5.033684
C            1.170300   4.185540  11.803028
C            2.342002  10.395540   5.033684
C            1.170300  10.395540  11.803028
C            8.992002   4.185540   5.033684
C            7.820300   4.185540  11.803028
C            8.992002  10.395540   5.033684
C            7.820300  10.395540  11.803028
C            3.160035   4.188645   3.746155
C            1.988333   4.188645  10.515498
C            3.160035  10.398645   3.746155
C            1.988333  10.398645  10.515498
C            9.810035   4.188645   3.746155
C            8.638333   4.188645  10.515498
C            9.810035  10.398645   3.746155
C            8.638333  10.398645  10.515498
C            0.820639   1.101033   2.862079
C           12.948937   1.101033   9.631422
C            0.820639   7.311033   2.862079
C           12.948937   7.311033   9.631422
C            7.470639   1.101033   2.862079
C            6.298937   1.101033   9.631422
C            7.470639   7.311033   2.862079
C            6.298937   7.311033   9.631422
C            0.369265   0.185058   1.720090
C           12.497563   0.185058   8.489434
C            0.369265   6.395058   1.720090
C           12.497563   6.395058   8.489434
C            7.019265   0.185058   1.720090
C            5.847563   0.185058   8.489434
C            7.019265   6.395058   1.720090
C            5.847563   6.395058   8.489434
C            1.081361   0.480033   0.406838
C           13.209658   0.480033   7.176181
C            1.081361   6.690033   0.406838
C           13.209658   6.690033   7.176181
C            7.731361   0.480033   0.406838
C            6.559658   0.480033   7.176181
C            7.731361   6.690033   0.406838
C            6.559658   6.690033   7.176181
C            2.281904   1.382346   0.490100
C            1.110201   1.382346   7.259444
C            2.281904   7.592346   0.490100
C            1.110201   7.592346   7.259444
C            8.931904   1.382346   0.490100
C            7.760201   1.382346   7.259444
C            8.931904   7.592346   0.490100
C            7.760201   7.592346   7.259444
C            3.136296   1.080540   1.735660
C            1.964593   1.080540   8.505003
C            3.136296   7.290540   1.735660
C            1.964593   7.290540   8.505003
C            9.786296   1.080540   1.735660
C            8.614593   1.080540   8.505003
C            9.786296   7.290540   1.735660
C            8.614593   7.290540   8.505003
C            2.318263   1.083645   3.023189
C            1.146560   1.083645   9.792533
C            2.318263   7.293645   3.023189
C            1.146560   7.293645   9.792533
C            8.968263   1.083645   3.023189
C            7.796560   1.083645   9.792533
C            8.968263   7.293645   3.023189
C            7.796560   7.293645   9.792533
