648
Crystal created from CIF file. Box size:   10.81260   27.12390   20.98260
O            2.547953   5.141787   5.148100
O            1.272761   5.141787  12.025070
O           10.810169   5.141787  18.902040
O            2.547953  14.183087   5.148100
O            1.272761  14.183087  12.025070
O           10.810169  14.183087  18.902040
O            2.547953  23.224387   5.148100
O            1.272761  23.224387  12.025070
O           10.810169  23.224387  18.902040
O            6.152153   5.141787   5.148100
O            4.876961   5.141787  12.025070
O            3.601769   5.141787  18.902040
O            6.152153  14.183087   5.148100
O            4.876961  14.183087  12.025070
O            3.601769  14.183087  18.902040
O            6.152153  23.224387   5.148100
O            4.876961  23.224387  12.025070
O            3.601769  23.224387  18.902040
O            9.756353   5.141787   5.148100
O            8.481161   5.141787  12.025070
O            7.205969   5.141787  18.902040
O            9.756353  14.183087   5.148100
O            8.481161  14.183087  12.025070
O            7.205969  14.183087  18.902040
O            9.756353  23.224387   5.148100
O            8.481161  23.224387  12.025070
O            7.205969  23.224387  18.902040
O            0.945559   0.621137   5.167355
O           10.482967   0.621137  12.044326
O            9.207776   0.621137  18.921296
O            0.945559   9.662437   5.167355
O           10.482967   9.662437  12.044326
O            9.207776   9.662437  18.921296
O            0.945559  18.703737   5.167355
O           10.482967  18.703737  12.044326
O            9.207776  18.703737  18.921296
O            4.549759   0.621137   5.167355
O            3.274567   0.621137  12.044326
O            1.999376   0.621137  18.921296
O            4.549759   9.662437   5.167355
O            3.274567   9.662437  12.044326
O            1.999376   9.662437  18.921296
O            4.549759  18.703737   5.167355
O            3.274567  18.703737  12.044326
O            1.999376  18.703737  18.921296
O            8.153959   0.621137   5.167355
O            6.878767   0.621137  12.044326
O            5.603576   0.621137  18.921296
O            8.153959   9.662437   5.167355
O            6.878767   9.662437  12.044326
O            5.603576   9.662437  18.921296
O            8.153959  18.703737   5.167355
O            6.878767  18.703737  12.044326
O            5.603576  18.703737  18.921296
O           10.593655   3.899513   1.728870
O            9.318463   3.899513   8.605841
O            8.043272   3.899513  15.482811
O           10.593655  12.940813   1.728870
O            9.318463  12.940813   8.605841
O            8.043272  12.940813  15.482811
O           10.593655  21.982113   1.728870
O            9.318463  21.982113   8.605841
O            8.043272  21.982113  15.482811
O            3.385255   3.899513   1.728870
O            2.110063   3.899513   8.605841
O            0.834872   3.899513  15.482811
O            3.385255  12.940813   1.728870
O            2.110063  12.940813   8.605841
O            0.834872  12.940813  15.482811
O            3.385255  21.982113   1.728870
O            2.110063  21.982113   8.605841
O            0.834872  21.982113  15.482811
O            6.989455   3.899513   1.728870
O            5.714263   3.899513   8.605841
O            4.439072   3.899513  15.482811
O            6.989455  12.940813   1.728870
O            5.714263  12.940813   8.605841
O            4.439072  12.940813  15.482811
O            6.989455  21.982113   1.728870
O            5.714263  21.982113   8.605841
O            4.439072  21.982113  15.482811
O            1.383449   8.420163   1.709615
O            0.108257   8.420163   8.586585
O            9.645665   8.420163  15.463555
O            1.383449  17.461463   1.709615
O            0.108257  17.461463   8.586585
O            9.645665  17.461463  15.463555
O            1.383449  26.502763   1.709615
O            0.108257  26.502763   8.586585
O            9.645665  26.502763  15.463555
O            4.987649   8.420163   1.709615
O            3.712457   8.420163   8.586585
O            2.437265   8.420163  15.463555
O            4.987649  17.461463   1.709615
O            3.712457  17.461463   8.586585
O            2.437265  17.461463  15.463555
O            4.987649  26.502763   1.709615
O            3.712457  26.502763   8.586585
O            2.437265  26.502763  15.463555
O            8.591849   8.420163   1.709615
O            7.316657   8.420163   8.586585
O            6.041465   8.420163  15.463555
O            8.591849  17.461463   1.709615
O            7.316657  17.461463   8.586585
O            6.041465  17.461463  15.463555
O            8.591849  26.502763   1.709615
O            7.316657  26.502763   8.586585
O            6.041465  26.502763  15.463555
N            2.092575   3.104782   4.256845
N            0.817383   3.104782  11.133815
N           10.354791   3.104782  18.010785
N            2.092575  12.146082   4.256845
N            0.817383  12.146082  11.133815
N           10.354791  12.146082  18.010785
N            2.092575  21.187382   4.256845
N            0.817383  21.187382  11.133815
N           10.354791  21.187382  18.010785
N            5.696775   3.104782   4.256845
N            4.421583   3.104782  11.133815
N            3.146391   3.104782  18.010785
N            5.696775  12.146082   4.256845
N            4.421583  12.146082  11.133815
N            3.146391  12.146082  18.010785
N            5.696775  21.187382   4.256845
N            4.421583  21.187382  11.133815
N            3.146391  21.187382  18.010785
N            9.300975   3.104782   4.256845
N            8.025783   3.104782  11.133815
N            6.750591   3.104782  18.010785
N            9.300975  12.146082   4.256845
N            8.025783  12.146082  11.133815
N            6.750591  12.146082  18.010785
N            9.300975  21.187382   4.256845
N            8.025783  21.187382  11.133815
N            6.750591  21.187382  18.010785
N            1.400938   7.625432   6.058611
N            0.125746   7.625432  12.935581
N            9.663154   7.625432  19.812551
N            1.400938  16.666732   6.058611
N            0.125746  16.666732  12.935581
N            9.663154  16.666732  19.812551
N            1.400938  25.708032   6.058611
N            0.125746  25.708032  12.935581
N            9.663154  25.708032  19.812551
N            5.005138   7.625432   6.058611
N            3.729946   7.625432  12.935581
N            2.454754   7.625432  19.812551
N            5.005138  16.666732   6.058611
N            3.729946  16.666732  12.935581
N            2.454754  16.666732  19.812551
N            5.005138  25.708032   6.058611
N            3.729946  25.708032  12.935581
N            2.454754  25.708032  19.812551
N            8.609338   7.625432   6.058611
N            7.334146   7.625432  12.935581
N            6.058954   7.625432  19.812551
N            8.609338  16.666732   6.058611
N            7.334146  16.666732  12.935581
N            6.058954  16.666732  19.812551
N            8.609338  25.708032   6.058611
N            7.334146  25.708032  12.935581
N            6.058954  25.708032  19.812551
N            0.236434   5.936518   2.620126
N            9.773842   5.936518   9.497096
N            8.498650   5.936518  16.374066
N            0.236434  14.977818   2.620126
N            9.773842  14.977818   9.497096
N            8.498650  14.977818  16.374066
N            0.236434  24.019118   2.620126
N            9.773842  24.019118   9.497096
N            8.498650  24.019118  16.374066
N            3.840634   5.936518   2.620126
N            2.565442   5.936518   9.497096
N            1.290250   5.936518  16.374066
N            3.840634  14.977818   2.620126
N            2.565442  14.977818   9.497096
N            1.290250  14.977818  16.374066
N            3.840634  24.019118   2.620126
N            2.565442  24.019118   9.497096
N            1.290250  24.019118  16.374066
N            7.444834   5.936518   2.620126
N            6.169642   5.936518   9.497096
N            4.894450   5.936518  16.374066
N            7.444834  14.977818   2.620126
N            6.169642  14.977818   9.497096
N            4.894450  14.977818  16.374066
N            7.444834  24.019118   2.620126
N            6.169642  24.019118   9.497096
N            4.894450  24.019118  16.374066
N            0.928070   1.415868   0.818359
N           10.465479   1.415868   7.695330
N            9.190287   1.415868  14.572300
N            0.928070  10.457168   0.818359
N           10.465479  10.457168   7.695330
N            9.190287  10.457168  14.572300
N            0.928070  19.498468   0.818359
N           10.465479  19.498468   7.695330
N            9.190287  19.498468  14.572300
N            4.532270   1.415868   0.818359
N            3.257079   1.415868   7.695330
N            1.981887   1.415868  14.572300
N            4.532270  10.457168   0.818359
N            3.257079  10.457168   7.695330
N            1.981887  10.457168  14.572300
N            4.532270  19.498468   0.818359
N            3.257079  19.498468   7.695330
N            1.981887  19.498468  14.572300
N            8.136470   1.415868   0.818359
N            6.861279   1.415868   7.695330
N            5.586087   1.415868  14.572300
N            8.136470  10.457168   0.818359
N            6.861279  10.457168   7.695330
N            5.586087  10.457168  14.572300
N            8.136470  19.498468   0.818359
N            6.861279  19.498468   7.695330
N            5.586087  19.498468  14.572300
H            1.554698   3.715974   6.037980
H            0.279506   3.715974  12.914950
H            9.816914   3.715974  19.791920
H            1.554698  12.757274   6.037980
H            0.279506  12.757274  12.914950
H            9.816914  12.757274  19.791920
H            1.554698  21.798574   6.037980
H            0.279506  21.798574  12.914950
H            9.816914  21.798574  19.791920
H            5.158898   3.715974   6.037980
H            3.883706   3.715974  12.914950
H            2.608514   3.715974  19.791920
H            5.158898  12.757274   6.037980
H            3.883706  12.757274  12.914950
H            2.608514  12.757274  19.791920
H            5.158898  21.798574   6.037980
H            3.883706  21.798574  12.914950
H            2.608514  21.798574  19.791920
H            8.763098   3.715974   6.037980
H            7.487906   3.715974  12.914950
H            6.212714   3.715974  19.791920
H            8.763098  12.757274   6.037980
H            7.487906  12.757274  12.914950
H            6.212714  12.757274  19.791920
H            8.763098  21.798574   6.037980
H            7.487906  21.798574  12.914950
H            6.212714  21.798574  19.791920
H            1.938814   8.236624   4.277475
H            0.663622   8.236624  11.154446
H           10.201031   8.236624  18.031416
H            1.938814  17.277924   4.277475
H            0.663622  17.277924  11.154446
H           10.201031  17.277924  18.031416
H            1.938814  26.319224   4.277475
H            0.663622  26.319224  11.154446
H           10.201031  26.319224  18.031416
H            5.543014   8.236624   4.277475
H            4.267822   8.236624  11.154446
H            2.992631   8.236624  18.031416
H            5.543014  17.277924   4.277475
H            4.267822  17.277924  11.154446
H            2.992631  17.277924  18.031416
H            5.543014  26.319224   4.277475
H            4.267822  26.319224  11.154446
H            2.992631  26.319224  18.031416
H            9.147214   8.236624   4.277475
H            7.872022   8.236624  11.154446
H            6.596831   8.236624  18.031416
H            9.147214  17.277924   4.277475
H            7.872022  17.277924  11.154446
H            6.596831  17.277924  18.031416
H            9.147214  26.319224   4.277475
H            7.872022  26.319224  11.154446
H            6.596831  26.319224  18.031416
H            0.774310   5.325326   0.838990
H           10.311718   5.325326   7.715961
H            9.036527   5.325326  14.592931
H            0.774310  14.366626   0.838990
H           10.311718  14.366626   7.715961
H            9.036527  14.366626  14.592931
H            0.774310  23.407926   0.838990
H           10.311718  23.407926   7.715961
H            9.036527  23.407926  14.592931
H            4.378510   5.325326   0.838990
H            3.103318   5.325326   7.715961
H            1.828127   5.325326  14.592931
H            4.378510  14.366626   0.838990
H            3.103318  14.366626   7.715961
H            1.828127  14.366626  14.592931
H            4.378510  23.407926   0.838990
H            3.103318  23.407926   7.715961
H            1.828127  23.407926  14.592931
H            7.982710   5.325326   0.838990
H            6.707518   5.325326   7.715961
H            5.432327   5.325326  14.592931
H            7.982710  14.366626   0.838990
H            6.707518  14.366626   7.715961
H            5.432327  14.366626  14.592931
H            7.982710  23.407926   0.838990
H            6.707518  23.407926   7.715961
H            5.432327  23.407926  14.592931
H            2.479594   3.300075   3.479747
H            1.204402   3.300075  10.356717
H           10.741811   3.300075  17.233687
H            2.479594  12.341375   3.479747
H            1.204402  12.341375  10.356717
H           10.741811  12.341375  17.233687
H            2.479594  21.382675   3.479747
H            1.204402  21.382675  10.356717
H           10.741811  21.382675  17.233687
H            6.083794   3.300075   3.479747
H            4.808602   3.300075  10.356717
H            3.533411   3.300075  17.233687
H            6.083794  12.341375   3.479747
H            4.808602  12.341375  10.356717
H            3.533411  12.341375  17.233687
H            6.083794  21.382675   3.479747
H            4.808602  21.382675  10.356717
H            3.533411  21.382675  17.233687
H            9.687994   3.300075   3.479747
H            8.412802   3.300075  10.356717
H            7.137611   3.300075  17.233687
H            9.687994  12.341375   3.479747
H            8.412802  12.341375  10.356717
H            7.137611  12.341375  17.233687
H            9.687994  21.382675   3.479747
H            8.412802  21.382675  10.356717
H            7.137611  21.382675  17.233687
H            1.013918   7.820725   6.835708
H           10.551326   7.820725  13.712679
H            9.276134   7.820725  20.589649
H            1.013918  16.862024   6.835708
H           10.551326  16.862024  13.712679
H            9.276134  16.862024  20.589649
H            1.013918  25.903325   6.835708
H           10.551326  25.903325  13.712679
H            9.276134  25.903325  20.589649
H            4.618118   7.820725   6.835708
H            3.342926   7.820725  13.712679
H            2.067734   7.820725  20.589649
H            4.618118  16.862024   6.835708
H            3.342926  16.862024  13.712679
H            2.067734  16.862024  20.589649
H            4.618118  25.903325   6.835708
H            3.342926  25.903325  13.712679
H            2.067734  25.903325  20.589649
H            8.222318   7.820725   6.835708
H            6.947126   7.820725  13.712679
H            5.671934   7.820725  20.589649
H            8.222318  16.862024   6.835708
H            6.947126  16.862024  13.712679
H            5.671934  16.862024  20.589649
H            8.222318  25.903325   6.835708
H            6.947126  25.903325  13.712679
H            5.671934  25.903325  20.589649
H           10.662014   5.741225   3.397223
H            9.386822   5.741225  10.274194
H            8.111630   5.741225  17.151164
H           10.662014  14.782525   3.397223
H            9.386822  14.782525  10.274194
H            8.111630  14.782525  17.151164
H           10.662014  23.823825   3.397223
H            9.386822  23.823825  10.274194
H            8.111630  23.823825  17.151164
H            3.453614   5.741225   3.397223
H            2.178422   5.741225  10.274194
H            0.903230   5.741225  17.151164
H            3.453614  14.782525   3.397223
H            2.178422  14.782525  10.274194
H            0.903230  14.782525  17.151164
H            3.453614  23.823825   3.397223
H            2.178422  23.823825  10.274194
H            0.903230  23.823825  17.151164
H            7.057814   5.741225   3.397223
H            5.782622   5.741225  10.274194
H            4.507430   5.741225  17.151164
H            7.057814  14.782525   3.397223
H            5.782622  14.782525  10.274194
H            4.507430  14.782525  17.151164
H            7.057814  23.823825   3.397223
H            5.782622  23.823825  10.274194
H            4.507430  23.823825  17.151164
H            1.746463   2.314573   4.401261
H            0.471272   2.314573  11.278231
H           10.008680   2.314573  18.155201
H            1.746463  11.355873   4.401261
H            0.471272  11.355873  11.278231
H           10.008680  11.355873  18.155201
H            1.746463  20.397173   4.401261
H            0.471272  20.397173  11.278231
H           10.008680  20.397173  18.155201
H            5.350663   2.314573   4.401261
H            4.075472   2.314573  11.278231
H            2.800280   2.314573  18.155201
H            5.350663  11.355873   4.401261
H            4.075472  11.355873  11.278231
H            2.800280  11.355873  18.155201
H            5.350663  20.397173   4.401261
H            4.075472  20.397173  11.278231
H            2.800280  20.397173  18.155201
H            8.954863   2.314573   4.401261
H            7.679672   2.314573  11.278231
H            6.404480   2.314573  18.155201
H            8.954863  11.355873   4.401261
H            7.679672  11.355873  11.278231
H            6.404480  11.355873  18.155201
H            8.954863  20.397173   4.401261
H            7.679672  20.397173  11.278231
H            6.404480  20.397173  18.155201
H            1.747049   6.835223   5.914194
H            0.471857   6.835223  12.791165
H           10.009265   6.835223  19.668135
H            1.747049  15.876523   5.914194
H            0.471857  15.876523  12.791165
H           10.009265  15.876523  19.668135
H            1.747049  24.917823   5.914194
H            0.471857  24.917823  12.791165
H           10.009265  24.917823  19.668135
H            5.351249   6.835223   5.914194
H            4.076057   6.835223  12.791165
H            2.800865   6.835223  19.668135
H            5.351249  15.876523   5.914194
H            4.076057  15.876523  12.791165
H            2.800865  15.876523  19.668135
H            5.351249  24.917823   5.914194
H            4.076057  24.917823  12.791165
H            2.800865  24.917823  19.668135
H            8.955449   6.835223   5.914194
H            7.680257   6.835223  12.791165
H            6.405065   6.835223  19.668135
H            8.955449  15.876523   5.914194
H            7.680257  15.876523  12.791165
H            6.405065  15.876523  19.668135
H            8.955449  24.917823   5.914194
H            7.680257  24.917823  12.791165
H            6.405065  24.917823  19.668135
H            0.582545   6.726727   2.475709
H           10.119953   6.726727   9.352679
H            8.844761   6.726727  16.229650
H            0.582545  15.768027   2.475709
H           10.119953  15.768027   9.352679
H            8.844761  15.768027  16.229650
H            0.582545  24.809327   2.475709
H           10.119953  24.809327   9.352679
H            8.844761  24.809327  16.229650
H            4.186745   6.726727   2.475709
H            2.911553   6.726727   9.352679
H            1.636361   6.726727  16.229650
H            4.186745  15.768027   2.475709
H            2.911553  15.768027   9.352679
H            1.636361  15.768027  16.229650
H            4.186745  24.809327   2.475709
H            2.911553  24.809327   9.352679
H            1.636361  24.809327  16.229650
H            7.790945   6.726727   2.475709
H            6.515753   6.726727   9.352679
H            5.240561   6.726727  16.229650
H            7.790945  15.768027   2.475709
H            6.515753  15.768027   9.352679
H            5.240561  15.768027  16.229650
H            7.790945  24.809327   2.475709
H            6.515753  24.809327   9.352679
H            5.240561  24.809327  16.229650
H            0.390194   0.804676   2.599495
H            9.927602   0.804676   9.476465
H            8.652410   0.804676  16.353435
H            0.390194   9.845976   2.599495
H            9.927602   9.845976   9.476465
H            8.652410   9.845976  16.353435
H            0.390194  18.887276   2.599495
H            9.927602  18.887276   9.476465
H            8.652410  18.887276  16.353435
H            3.994394   0.804676   2.599495
H            2.719202   0.804676   9.476465
H            1.444010   0.804676  16.353435
H            3.994394   9.845976   2.599495
H            2.719202   9.845976   9.476465
H            1.444010   9.845976  16.353435
H            3.994394  18.887276   2.599495
H            2.719202  18.887276   9.476465
H            1.444010  18.887276  16.353435
H            7.598594   0.804676   2.599495
H            6.323402   0.804676   9.476465
H            5.048210   0.804676  16.353435
H            7.598594   9.845976   2.599495
H            6.323402   9.845976   9.476465
H            5.048210   9.845976  16.353435
H            7.598594  18.887276   2.599495
H            6.323402  18.887276   9.476465
H            5.048210  18.887276  16.353435
H            1.315090   1.220575   0.041262
H            0.039898   1.220575   6.918232
H            9.577307   1.220575  13.795202
H            1.315090  10.261875   0.041262
H            0.039898  10.261875   6.918232
H            9.577307  10.261875  13.795202
H            1.315090  19.303176   0.041262
H            0.039898  19.303176   6.918232
H            9.577307  19.303176  13.795202
H            4.919290   1.220575   0.041262
H            3.644098   1.220575   6.918232
H            2.368907   1.220575  13.795202
H            4.919290  10.261875   0.041262
H            3.644098  10.261875   6.918232
H            2.368907  10.261875  13.795202
H            4.919290  19.303176   0.041262
H            3.644098  19.303176   6.918232
H            2.368907  19.303176  13.795202
H            8.523490   1.220575   0.041262
H            7.248298   1.220575   6.918232
H            5.973107   1.220575  13.795202
H            8.523490  10.261875   0.041262
H            7.248298  10.261875   6.918232
H            5.973107  10.261875  13.795202
H            8.523490  19.303176   0.041262
H            7.248298  19.303176   6.918232
H            5.973107  19.303176  13.795202
H            0.581959   2.206077   0.962776
H           10.119367   2.206077   7.839746
H            8.844176   2.206077  14.716716
H            0.581959  11.247377   0.962776
H           10.119367  11.247377   7.839746
H            8.844176  11.247377  14.716716
H            0.581959  20.288677   0.962776
H           10.119367  20.288677   7.839746
H            8.844176  20.288677  14.716716
H            4.186159   2.206077   0.962776
H            2.910967   2.206077   7.839746
H            1.635776   2.206077  14.716716
H            4.186159  11.247377   0.962776
H            2.910967  11.247377   7.839746
H            1.635776  11.247377  14.716716
H            4.186159  20.288677   0.962776
H            2.910967  20.288677   7.839746
H            1.635776  20.288677  14.716716
H            7.790359   2.206077   0.962776
H            6.515167   2.206077   7.839746
H            5.239976   2.206077  14.716716
H            7.790359  11.247377   0.962776
H            6.515167  11.247377   7.839746
H            5.239976  11.247377  14.716716
H            7.790359  20.288677   0.962776
H            6.515167  20.288677   7.839746
H            5.239976  20.288677  14.716716
C            2.045795   4.009817   5.212743
C            0.770603   4.009817  12.089714
C           10.308011   4.009817  18.966684
C            2.045795  13.051117   5.212743
C            0.770603  13.051117  12.089714
C           10.308011  13.051117  18.966684
C            2.045795  22.092417   5.212743
C            0.770603  22.092417  12.089714
C           10.308011  22.092417  18.966684
C            5.649995   4.009817   5.212743
C            4.374803   4.009817  12.089714
C            3.099611   4.009817  18.966684
C            5.649995  13.051117   5.212743
C            4.374803  13.051117  12.089714
C            3.099611  13.051117  18.966684
C            5.649995  22.092417   5.212743
C            4.374803  22.092417  12.089714
C            3.099611  22.092417  18.966684
C            9.254195   4.009817   5.212743
C            7.979003   4.009817  12.089714
C            6.703811   4.009817  18.966684
C            9.254195  13.051117   5.212743
C            7.979003  13.051117  12.089714
C            6.703811  13.051117  18.966684
C            9.254195  22.092417   5.212743
C            7.979003  22.092417  12.089714
C            6.703811  22.092417  18.966684
C            1.447717   8.530467   5.102712
C            0.172525   8.530467  11.979682
C            9.709934   8.530467  18.856652
C            1.447717  17.571767   5.102712
C            0.172525  17.571767  11.979682
C            9.709934  17.571767  18.856652
C            1.447717  26.613067   5.102712
C            0.172525  26.613067  11.979682
C            9.709934  26.613067  18.856652
C            5.051917   8.530467   5.102712
C            3.776725   8.530467  11.979682
C            2.501534   8.530467  18.856652
C            5.051917  17.571767   5.102712
C            3.776725  17.571767  11.979682
C            2.501534  17.571767  18.856652
C            5.051917  26.613067   5.102712
C            3.776725  26.613067  11.979682
C            2.501534  26.613067  18.856652
C            8.656117   8.530467   5.102712
C            7.380925   8.530467  11.979682
C            6.105734   8.530467  18.856652
C            8.656117  17.571767   5.102712
C            7.380925  17.571767  11.979682
C            6.105734  17.571767  18.856652
C            8.656117  26.613067   5.102712
C            7.380925  26.613067  11.979682
C            6.105734  26.613067  18.856652
C            0.283213   5.031483   1.664227
C            9.820621   5.031483   8.541197
C            8.545430   5.031483  15.418167
C            0.283213  14.072783   1.664227
C            9.820621  14.072783   8.541197
C            8.545430  14.072783  15.418167
C            0.283213  23.114083   1.664227
C            9.820621  23.114083   8.541197
C            8.545430  23.114083  15.418167
C            3.887413   5.031483   1.664227
C            2.612221   5.031483   8.541197
C            1.337030   5.031483  15.418167
C            3.887413  14.072783   1.664227
C            2.612221  14.072783   8.541197
C            1.337030  14.072783  15.418167
C            3.887413  23.114083   1.664227
C            2.612221  23.114083   8.541197
C            1.337030  23.114083  15.418167
C            7.491613   5.031483   1.664227
C            6.216421   5.031483   8.541197
C            4.941230   5.031483  15.418167
C            7.491613  14.072783   1.664227
C            6.216421  14.072783   8.541197
C            4.941230  14.072783  15.418167
C            7.491613  23.114083   1.664227
C            6.216421  23.114083   8.541197
C            4.941230  23.114083  15.418167
C            0.881291   0.510833   1.774258
C           10.418699   0.510833   8.651229
C            9.143507   0.510833  15.528199
C            0.881291   9.552133   1.774258
C           10.418699   9.552133   8.651229
C            9.143507   9.552133  15.528199
C            0.881291  18.593433   1.774258
C           10.418699  18.593433   8.651229
C            9.143507  18.593433  15.528199
C            4.485491   0.510833   1.774258
C            3.210299   0.510833   8.651229
C            1.935107   0.510833  15.528199
C            4.485491   9.552133   1.774258
C            3.210299   9.552133   8.651229
C            1.935107   9.552133  15.528199
C            4.485491  18.593433   1.774258
C            3.210299  18.593433   8.651229
C            1.935107  18.593433  15.528199
C            8.089691   0.510833   1.774258
C            6.814499   0.510833   8.651229
C            5.539307   0.510833  15.528199
C            8.089691   9.552133   1.774258
C            6.814499   9.552133   8.651229
C            5.539307   9.552133  15.528199
C            8.089691  18.593433   1.774258
C            6.814499  18.593433   8.651229
C            5.539307  18.593433  15.528199
