864
Crystal created from CIF file. Box size:   19.64550   23.53350   18.25950
O            0.190496   5.623957   3.306674
O            0.190496   5.623957   9.393174
O            0.190496   5.623957  15.479674
O            0.190496  13.468457   3.306674
O            0.190496  13.468457   9.393174
O            0.190496  13.468457  15.479674
O            0.190496  21.312957   3.306674
O            0.190496  21.312957   9.393174
O            0.190496  21.312957  15.479674
O            6.738996   5.623957   3.306674
O            6.738996   5.623957   9.393174
O            6.738996   5.623957  15.479674
O            6.738996  13.468457   3.306674
O            6.738996  13.468457   9.393174
O            6.738996  13.468457  15.479674
O            6.738996  21.312957   3.306674
O            6.738996  21.312957   9.393174
O            6.738996  21.312957  15.479674
O           13.287496   5.623957   3.306674
O           13.287496   5.623957   9.393174
O           13.287496   5.623957  15.479674
O           13.287496  13.468457   3.306674
O           13.287496  13.468457   9.393174
O           13.287496  13.468457  15.479674
O           13.287496  21.312957   3.306674
O           13.287496  21.312957   9.393174
O           13.287496  21.312957  15.479674
O            3.083754   5.623957   0.263424
O            3.083754   5.623957   6.349924
O            3.083754   5.623957  12.436424
O            3.083754  13.468457   0.263424
O            3.083754  13.468457   6.349924
O            3.083754  13.468457  12.436424
O            3.083754  21.312957   0.263424
O            3.083754  21.312957   6.349924
O            3.083754  21.312957  12.436424
O            9.632254   5.623957   0.263424
O            9.632254   5.623957   6.349924
O            9.632254   5.623957  12.436424
O            9.632254  13.468457   0.263424
O            9.632254  13.468457   6.349924
O            9.632254  13.468457  12.436424
O            9.632254  21.312957   0.263424
O            9.632254  21.312957   6.349924
O            9.632254  21.312957  12.436424
O           16.180754   5.623957   0.263424
O           16.180754   5.623957   6.349924
O           16.180754   5.623957  12.436424
O           16.180754  13.468457   0.263424
O           16.180754  13.468457   6.349924
O           16.180754  13.468457  12.436424
O           16.180754  21.312957   0.263424
O           16.180754  21.312957   6.349924
O           16.180754  21.312957  12.436424
O            3.464746   6.142793   3.306674
O            3.464746   6.142793   9.393174
O            3.464746   6.142793  15.479674
O            3.464746  13.987293   3.306674
O            3.464746  13.987293   9.393174
O            3.464746  13.987293  15.479674
O            3.464746  21.831793   3.306674
O            3.464746  21.831793   9.393174
O            3.464746  21.831793  15.479674
O           10.013246   6.142793   3.306674
O           10.013246   6.142793   9.393174
O           10.013246   6.142793  15.479674
O           10.013246  13.987293   3.306674
O           10.013246  13.987293   9.393174
O           10.013246  13.987293  15.479674
O           10.013246  21.831793   3.306674
O           10.013246  21.831793   9.393174
O           10.013246  21.831793  15.479674
O           16.561746   6.142793   3.306674
O           16.561746   6.142793   9.393174
O           16.561746   6.142793  15.479674
O           16.561746  13.987293   3.306674
O           16.561746  13.987293   9.393174
O           16.561746  13.987293  15.479674
O           16.561746  21.831793   3.306674
O           16.561746  21.831793   9.393174
O           16.561746  21.831793  15.479674
O            6.358004   2.220543   2.779826
O            6.358004   2.220543   8.866326
O            6.358004   2.220543  14.952826
O            6.358004  10.065043   2.779826
O            6.358004  10.065043   8.866326
O            6.358004  10.065043  14.952826
O            6.358004  17.909543   2.779826
O            6.358004  17.909543   8.866326
O            6.358004  17.909543  14.952826
O           12.906504   2.220543   2.779826
O           12.906504   2.220543   8.866326
O           12.906504   2.220543  14.952826
O           12.906504  10.065043   2.779826
O           12.906504  10.065043   8.866326
O           12.906504  10.065043  14.952826
O           12.906504  17.909543   2.779826
O           12.906504  17.909543   8.866326
O           12.906504  17.909543  14.952826
O           19.455004   2.220543   2.779826
O           19.455004   2.220543   8.866326
O           19.455004   2.220543  14.952826
O           19.455004  10.065043   2.779826
O           19.455004  10.065043   8.866326
O           19.455004  10.065043  14.952826
O           19.455004  17.909543   2.779826
O           19.455004  17.909543   8.866326
O           19.455004  17.909543  14.952826
O            3.464746   2.220543   5.823076
O            3.464746   2.220543  11.909576
O            3.464746   2.220543  17.996076
O            3.464746  10.065043   5.823076
O            3.464746  10.065043  11.909576
O            3.464746  10.065043  17.996076
O            3.464746  17.909543   5.823076
O            3.464746  17.909543  11.909576
O            3.464746  17.909543  17.996076
O           10.013246   2.220543   5.823076
O           10.013246   2.220543  11.909576
O           10.013246   2.220543  17.996076
O           10.013246  10.065043   5.823076
O           10.013246  10.065043  11.909576
O           10.013246  10.065043  17.996076
O           10.013246  17.909543   5.823076
O           10.013246  17.909543  11.909576
O           10.013246  17.909543  17.996076
O           16.561746   2.220543   5.823076
O           16.561746   2.220543  11.909576
O           16.561746   2.220543  17.996076
O           16.561746  10.065043   5.823076
O           16.561746  10.065043  11.909576
O           16.561746  10.065043  17.996076
O           16.561746  17.909543   5.823076
O           16.561746  17.909543  11.909576
O           16.561746  17.909543  17.996076
O            3.083754   1.701707   2.779826
O            3.083754   1.701707   8.866326
O            3.083754   1.701707  14.952826
O            3.083754   9.546207   2.779826
O            3.083754   9.546207   8.866326
O            3.083754   9.546207  14.952826
O            3.083754  17.390707   2.779826
O            3.083754  17.390707   8.866326
O            3.083754  17.390707  14.952826
O            9.632254   1.701707   2.779826
O            9.632254   1.701707   8.866326
O            9.632254   1.701707  14.952826
O            9.632254   9.546207   2.779826
O            9.632254   9.546207   8.866326
O            9.632254   9.546207  14.952826
O            9.632254  17.390707   2.779826
O            9.632254  17.390707   8.866326
O            9.632254  17.390707  14.952826
O           16.180754   1.701707   2.779826
O           16.180754   1.701707   8.866326
O           16.180754   1.701707  14.952826
O           16.180754   9.546207   2.779826
O           16.180754   9.546207   8.866326
O           16.180754   9.546207  14.952826
O           16.180754  17.390707   2.779826
O           16.180754  17.390707   8.866326
O           16.180754  17.390707  14.952826
O            1.022417   3.879890   4.456779
O            1.022417   3.879890  10.543279
O            1.022417   3.879890  16.629779
O            1.022417  11.724390   4.456779
O            1.022417  11.724390  10.543279
O            1.022417  11.724390  16.629779
O            1.022417  19.568890   4.456779
O            1.022417  19.568890  10.543279
O            1.022417  19.568890  16.629779
O            7.570917   3.879890   4.456779
O            7.570917   3.879890  10.543279
O            7.570917   3.879890  16.629779
O            7.570917  11.724390   4.456779
O            7.570917  11.724390  10.543279
O            7.570917  11.724390  16.629779
O            7.570917  19.568890   4.456779
O            7.570917  19.568890  10.543279
O            7.570917  19.568890  16.629779
O           14.119417   3.879890   4.456779
O           14.119417   3.879890  10.543279
O           14.119417   3.879890  16.629779
O           14.119417  11.724390   4.456779
O           14.119417  11.724390  10.543279
O           14.119417  11.724390  16.629779
O           14.119417  19.568890   4.456779
O           14.119417  19.568890  10.543279
O           14.119417  19.568890  16.629779
O            2.251833   3.879890   1.413529
O            2.251833   3.879890   7.500029
O            2.251833   3.879890  13.586529
O            2.251833  11.724390   1.413529
O            2.251833  11.724390   7.500029
O            2.251833  11.724390  13.586529
O            2.251833  19.568890   1.413529
O            2.251833  19.568890   7.500029
O            2.251833  19.568890  13.586529
O            8.800333   3.879890   1.413529
O            8.800333   3.879890   7.500029
O            8.800333   3.879890  13.586529
O            8.800333  11.724390   1.413529
O            8.800333  11.724390   7.500029
O            8.800333  11.724390  13.586529
O            8.800333  19.568890   1.413529
O            8.800333  19.568890   7.500029
O            8.800333  19.568890  13.586529
O           15.348833   3.879890   1.413529
O           15.348833   3.879890   7.500029
O           15.348833   3.879890  13.586529
O           15.348833  11.724390   1.413529
O           15.348833  11.724390   7.500029
O           15.348833  11.724390  13.586529
O           15.348833  19.568890   1.413529
O           15.348833  19.568890   7.500029
O           15.348833  19.568890  13.586529
O            4.296667   0.042360   4.456779
O            4.296667   0.042360  10.543279
O            4.296667   0.042360  16.629779
O            4.296667   7.886860   4.456779
O            4.296667   7.886860  10.543279
O            4.296667   7.886860  16.629779
O            4.296667  15.731360   4.456779
O            4.296667  15.731360  10.543279
O            4.296667  15.731360  16.629779
O           10.845167   0.042360   4.456779
O           10.845167   0.042360  10.543279
O           10.845167   0.042360  16.629779
O           10.845167   7.886860   4.456779
O           10.845167   7.886860  10.543279
O           10.845167   7.886860  16.629779
O           10.845167  15.731360   4.456779
O           10.845167  15.731360  10.543279
O           10.845167  15.731360  16.629779
O           17.393667   0.042360   4.456779
O           17.393667   0.042360  10.543279
O           17.393667   0.042360  16.629779
O           17.393667   7.886860   4.456779
O           17.393667   7.886860  10.543279
O           17.393667   7.886860  16.629779
O           17.393667  15.731360   4.456779
O           17.393667  15.731360  10.543279
O           17.393667  15.731360  16.629779
O            5.526083   3.964610   1.629721
O            5.526083   3.964610   7.716221
O            5.526083   3.964610  13.802721
O            5.526083  11.809110   1.629721
O            5.526083  11.809110   7.716221
O            5.526083  11.809110  13.802721
O            5.526083  19.653610   1.629721
O            5.526083  19.653610   7.716221
O            5.526083  19.653610  13.802721
O           12.074583   3.964610   1.629721
O           12.074583   3.964610   7.716221
O           12.074583   3.964610  13.802721
O           12.074583  11.809110   1.629721
O           12.074583  11.809110   7.716221
O           12.074583  11.809110  13.802721
O           12.074583  19.653610   1.629721
O           12.074583  19.653610   7.716221
O           12.074583  19.653610  13.802721
O           18.623083   3.964610   1.629721
O           18.623083   3.964610   7.716221
O           18.623083   3.964610  13.802721
O           18.623083  11.809110   1.629721
O           18.623083  11.809110   7.716221
O           18.623083  11.809110  13.802721
O           18.623083  19.653610   1.629721
O           18.623083  19.653610   7.716221
O           18.623083  19.653610  13.802721
O            4.296667   3.964610   4.672971
O            4.296667   3.964610  10.759471
O            4.296667   3.964610  16.845971
O            4.296667  11.809110   4.672971
O            4.296667  11.809110  10.759471
O            4.296667  11.809110  16.845971
O            4.296667  19.653610   4.672971
O            4.296667  19.653610  10.759471
O            4.296667  19.653610  16.845971
O           10.845167   3.964610   4.672971
O           10.845167   3.964610  10.759471
O           10.845167   3.964610  16.845971
O           10.845167  11.809110   4.672971
O           10.845167  11.809110  10.759471
O           10.845167  11.809110  16.845971
O           10.845167  19.653610   4.672971
O           10.845167  19.653610  10.759471
O           10.845167  19.653610  16.845971
O           17.393667   3.964610   4.672971
O           17.393667   3.964610  10.759471
O           17.393667   3.964610  16.845971
O           17.393667  11.809110   4.672971
O           17.393667  11.809110  10.759471
O           17.393667  11.809110  16.845971
O           17.393667  19.653610   4.672971
O           17.393667  19.653610  10.759471
O           17.393667  19.653610  16.845971
O            2.251833   7.802140   1.629721
O            2.251833   7.802140   7.716221
O            2.251833   7.802140  13.802721
O            2.251833  15.646640   1.629721
O            2.251833  15.646640   7.716221
O            2.251833  15.646640  13.802721
O            2.251833  23.491140   1.629721
O            2.251833  23.491140   7.716221
O            2.251833  23.491140  13.802721
O            8.800333   7.802140   1.629721
O            8.800333   7.802140   7.716221
O            8.800333   7.802140  13.802721
O            8.800333  15.646640   1.629721
O            8.800333  15.646640   7.716221
O            8.800333  15.646640  13.802721
O            8.800333  23.491140   1.629721
O            8.800333  23.491140   7.716221
O            8.800333  23.491140  13.802721
O           15.348833   7.802140   1.629721
O           15.348833   7.802140   7.716221
O           15.348833   7.802140  13.802721
O           15.348833  15.646640   1.629721
O           15.348833  15.646640   7.716221
O           15.348833  15.646640  13.802721
O           15.348833  23.491140   1.629721
O           15.348833  23.491140   7.716221
O           15.348833  23.491140  13.802721
O            6.358004   6.142793   0.263424
O            6.358004   6.142793   6.349924
O            6.358004   6.142793  12.436424
O            6.358004  13.987293   0.263424
O            6.358004  13.987293   6.349924
O            6.358004  13.987293  12.436424
O            6.358004  21.831793   0.263424
O            6.358004  21.831793   6.349924
O            6.358004  21.831793  12.436424
O           12.906504   6.142793   0.263424
O           12.906504   6.142793   6.349924
O           12.906504   6.142793  12.436424
O           12.906504  13.987293   0.263424
O           12.906504  13.987293   6.349924
O           12.906504  13.987293  12.436424
O           12.906504  21.831793   0.263424
O           12.906504  21.831793   6.349924
O           12.906504  21.831793  12.436424
O           19.455004   6.142793   0.263424
O           19.455004   6.142793   6.349924
O           19.455004   6.142793  12.436424
O           19.455004  13.987293   0.263424
O           19.455004  13.987293   6.349924
O           19.455004  13.987293  12.436424
O           19.455004  21.831793   0.263424
O           19.455004  21.831793   6.349924
O           19.455004  21.831793  12.436424
O            5.526083   0.042360   1.413529
O            5.526083   0.042360   7.500029
O            5.526083   0.042360  13.586529
O            5.526083   7.886860   1.413529
O            5.526083   7.886860   7.500029
O            5.526083   7.886860  13.586529
O            5.526083  15.731360   1.413529
O            5.526083  15.731360   7.500029
O            5.526083  15.731360  13.586529
O           12.074583   0.042360   1.413529
O           12.074583   0.042360   7.500029
O           12.074583   0.042360  13.586529
O           12.074583   7.886860   1.413529
O           12.074583   7.886860   7.500029
O           12.074583   7.886860  13.586529
O           12.074583  15.731360   1.413529
O           12.074583  15.731360   7.500029
O           12.074583  15.731360  13.586529
O           18.623083   0.042360   1.413529
O           18.623083   0.042360   7.500029
O           18.623083   0.042360  13.586529
O           18.623083   7.886860   1.413529
O           18.623083   7.886860   7.500029
O           18.623083   7.886860  13.586529
O           18.623083  15.731360   1.413529
O           18.623083  15.731360   7.500029
O           18.623083  15.731360  13.586529
O            0.190496   1.701707   5.823076
O            0.190496   1.701707  11.909576
O            0.190496   1.701707  17.996076
O            0.190496   9.546207   5.823076
O            0.190496   9.546207  11.909576
O            0.190496   9.546207  17.996076
O            0.190496  17.390707   5.823076
O            0.190496  17.390707  11.909576
O            0.190496  17.390707  17.996076
O            6.738996   1.701707   5.823076
O            6.738996   1.701707  11.909576
O            6.738996   1.701707  17.996076
O            6.738996   9.546207   5.823076
O            6.738996   9.546207  11.909576
O            6.738996   9.546207  17.996076
O            6.738996  17.390707   5.823076
O            6.738996  17.390707  11.909576
O            6.738996  17.390707  17.996076
O           13.287496   1.701707   5.823076
O           13.287496   1.701707  11.909576
O           13.287496   1.701707  17.996076
O           13.287496   9.546207   5.823076
O           13.287496   9.546207  11.909576
O           13.287496   9.546207  17.996076
O           13.287496  17.390707   5.823076
O           13.287496  17.390707  11.909576
O           13.287496  17.390707  17.996076
O            1.022417   7.802140   4.672971
O            1.022417   7.802140  10.759471
O            1.022417   7.802140  16.845971
O            1.022417  15.646640   4.672971
O            1.022417  15.646640  10.759471
O            1.022417  15.646640  16.845971
O            1.022417  23.491140   4.672971
O            1.022417  23.491140  10.759471
O            1.022417  23.491140  16.845971
O            7.570917   7.802140   4.672971
O            7.570917   7.802140  10.759471
O            7.570917   7.802140  16.845971
O            7.570917  15.646640   4.672971
O            7.570917  15.646640  10.759471
O            7.570917  15.646640  16.845971
O            7.570917  23.491140   4.672971
O            7.570917  23.491140  10.759471
O            7.570917  23.491140  16.845971
O           14.119417   7.802140   4.672971
O           14.119417   7.802140  10.759471
O           14.119417   7.802140  16.845971
O           14.119417  15.646640   4.672971
O           14.119417  15.646640  10.759471
O           14.119417  15.646640  16.845971
O           14.119417  23.491140   4.672971
O           14.119417  23.491140  10.759471
O           14.119417  23.491140  16.845971
H            0.595913   6.095176   3.992744
H            0.595913   6.095176  10.079244
H            0.595913   6.095176  16.165744
H            0.595913  13.939676   3.992744
H            0.595913  13.939676  10.079244
H            0.595913  13.939676  16.165744
H            0.595913  21.784176   3.992744
H            0.595913  21.784176  10.079244
H            0.595913  21.784176  16.165744
H            7.144413   6.095176   3.992744
H            7.144413   6.095176  10.079244
H            7.144413   6.095176  16.165744
H            7.144413  13.939676   3.992744
H            7.144413  13.939676  10.079244
H            7.144413  13.939676  16.165744
H            7.144413  21.784176   3.992744
H            7.144413  21.784176  10.079244
H            7.144413  21.784176  16.165744
H           13.692913   6.095176   3.992744
H           13.692913   6.095176  10.079244
H           13.692913   6.095176  16.165744
H           13.692913  13.939676   3.992744
H           13.692913  13.939676  10.079244
H           13.692913  13.939676  16.165744
H           13.692913  21.784176   3.992744
H           13.692913  21.784176  10.079244
H           13.692913  21.784176  16.165744
H            2.678337   6.095176   0.949494
H            2.678337   6.095176   7.035994
H            2.678337   6.095176  13.122494
H            2.678337  13.939676   0.949494
H            2.678337  13.939676   7.035994
H            2.678337  13.939676  13.122494
H            2.678337  21.784176   0.949494
H            2.678337  21.784176   7.035994
H            2.678337  21.784176  13.122494
H            9.226837   6.095176   0.949494
H            9.226837   6.095176   7.035994
H            9.226837   6.095176  13.122494
H            9.226837  13.939676   0.949494
H            9.226837  13.939676   7.035994
H            9.226837  13.939676  13.122494
H            9.226837  21.784176   0.949494
H            9.226837  21.784176   7.035994
H            9.226837  21.784176  13.122494
H           15.775337   6.095176   0.949494
H           15.775337   6.095176   7.035994
H           15.775337   6.095176  13.122494
H           15.775337  13.939676   0.949494
H           15.775337  13.939676   7.035994
H           15.775337  13.939676  13.122494
H           15.775337  21.784176   0.949494
H           15.775337  21.784176   7.035994
H           15.775337  21.784176  13.122494
H            3.870163   5.671574   3.992744
H            3.870163   5.671574  10.079244
H            3.870163   5.671574  16.165744
H            3.870163  13.516074   3.992744
H            3.870163  13.516074  10.079244
H            3.870163  13.516074  16.165744
H            3.870163  21.360574   3.992744
H            3.870163  21.360574  10.079244
H            3.870163  21.360574  16.165744
H           10.418663   5.671574   3.992744
H           10.418663   5.671574  10.079244
H           10.418663   5.671574  16.165744
H           10.418663  13.516074   3.992744
H           10.418663  13.516074  10.079244
H           10.418663  13.516074  16.165744
H           10.418663  21.360574   3.992744
H           10.418663  21.360574  10.079244
H           10.418664  21.360574  16.165744
H           16.967163   5.671574   3.992744
H           16.967163   5.671574  10.079244
H           16.967163   5.671574  16.165744
H           16.967163  13.516074   3.992744
H           16.967163  13.516074  10.079244
H           16.967163  13.516074  16.165744
H           16.967163  21.360574   3.992744
H           16.967163  21.360574  10.079244
H           16.967163  21.360574  16.165744
H            5.952587   1.749324   2.093756
H            5.952587   1.749324   8.180256
H            5.952587   1.749324  14.266756
H            5.952587   9.593824   2.093756
H            5.952587   9.593824   8.180256
H            5.952587   9.593824  14.266756
H            5.952587  17.438324   2.093756
H            5.952587  17.438324   8.180256
H            5.952587  17.438324  14.266756
H           12.501087   1.749324   2.093756
H           12.501087   1.749324   8.180256
H           12.501087   1.749324  14.266756
H           12.501087   9.593824   2.093756
H           12.501087   9.593824   8.180256
H           12.501087   9.593824  14.266756
H           12.501087  17.438324   2.093756
H           12.501087  17.438324   8.180256
H           12.501087  17.438324  14.266756
H           19.049587   1.749324   2.093756
H           19.049587   1.749324   8.180256
H           19.049587   1.749324  14.266756
H           19.049587   9.593824   2.093756
H           19.049587   9.593824   8.180256
H           19.049587   9.593824  14.266756
H           19.049587  17.438324   2.093756
H           19.049587  17.438324   8.180256
H           19.049587  17.438324  14.266756
H            3.870163   1.749324   5.137006
H            3.870163   1.749324  11.223506
H            3.870163   1.749324  17.310006
H            3.870163   9.593824   5.137006
H            3.870163   9.593824  11.223506
H            3.870163   9.593824  17.310006
H            3.870163  17.438324   5.137006
H            3.870163  17.438324  11.223506
H            3.870163  17.438324  17.310006
H           10.418663   1.749324   5.137006
H           10.418663   1.749324  11.223506
H           10.418663   1.749324  17.310006
H           10.418663   9.593824   5.137006
H           10.418663   9.593824  11.223506
H           10.418663   9.593824  17.310006
H           10.418663  17.438324   5.137006
H           10.418663  17.438324  11.223506
H           10.418664  17.438324  17.310006
H           16.967163   1.749324   5.137006
H           16.967163   1.749324  11.223506
H           16.967163   1.749324  17.310006
H           16.967163   9.593824   5.137006
H           16.967163   9.593824  11.223506
H           16.967163   9.593824  17.310006
H           16.967163  17.438324   5.137006
H           16.967163  17.438324  11.223506
H           16.967163  17.438324  17.310006
H            2.678337   2.172926   2.093756
H            2.678337   2.172926   8.180256
H            2.678337   2.172926  14.266756
H            2.678337  10.017426   2.093756
H            2.678337  10.017426   8.180256
H            2.678337  10.017426  14.266756
H            2.678337  17.861926   2.093756
H            2.678337  17.861926   8.180256
H            2.678337  17.861926  14.266756
H            9.226837   2.172926   2.093756
H            9.226837   2.172926   8.180256
H            9.226837   2.172926  14.266756
H            9.226837  10.017426   2.093756
H            9.226837  10.017426   8.180256
H            9.226837  10.017426  14.266756
H            9.226837  17.861926   2.093756
H            9.226837  17.861926   8.180256
H            9.226837  17.861926  14.266756
H           15.775337   2.172926   2.093756
H           15.775337   2.172926   8.180256
H           15.775337   2.172926  14.266756
H           15.775337  10.017426   2.093756
H           15.775337  10.017426   8.180256
H           15.775337  10.017426  14.266756
H           15.775337  17.861926   2.093756
H           15.775337  17.861926   8.180256
H           15.775337  17.861926  14.266756
H            5.952587   5.671574   0.949494
H            5.952587   5.671574   7.035994
H            5.952587   5.671574  13.122494
H            5.952587  13.516074   0.949494
H            5.952587  13.516074   7.035994
H            5.952587  13.516074  13.122494
H            5.952587  21.360574   0.949494
H            5.952587  21.360574   7.035994
H            5.952587  21.360574  13.122494
H           12.501087   5.671574   0.949494
H           12.501087   5.671574   7.035994
H           12.501087   5.671574  13.122494
H           12.501087  13.516074   0.949494
H           12.501087  13.516074   7.035994
H           12.501087  13.516074  13.122494
H           12.501087  21.360574   0.949494
H           12.501087  21.360574   7.035994
H           12.501087  21.360574  13.122494
H           19.049587   5.671574   0.949494
H           19.049587   5.671574   7.035994
H           19.049587   5.671574  13.122494
H           19.049587  13.516074   0.949494
H           19.049587  13.516074   7.035994
H           19.049587  13.516074  13.122494
H           19.049587  21.360574   0.949494
H           19.049587  21.360574   7.035994
H           19.049587  21.360574  13.122494
H            0.595913   2.172926   5.137006
H            0.595913   2.172926  11.223506
H            0.595913   2.172926  17.310006
H            0.595913  10.017426   5.137006
H            0.595913  10.017426  11.223506
H            0.595913  10.017426  17.310006
H            0.595913  17.861926   5.137006
H            0.595913  17.861926  11.223506
H            0.595913  17.861926  17.310006
H            7.144413   2.172926   5.137006
H            7.144413   2.172926  11.223506
H            7.144413   2.172926  17.310006
H            7.144413  10.017426   5.137006
H            7.144413  10.017426  11.223506
H            7.144413  10.017426  17.310006
H            7.144413  17.861926   5.137006
H            7.144413  17.861926  11.223506
H            7.144413  17.861926  17.310006
H           13.692913   2.172926   5.137006
H           13.692913   2.172926  11.223506
H           13.692913   2.172926  17.310006
H           13.692913  10.017426   5.137006
H           13.692913  10.017426  11.223506
H           13.692913  10.017426  17.310006
H           13.692913  17.861926   5.137006
H           13.692913  17.861926  11.223506
H           13.692913  17.861926  17.310006
C            0.373134   4.355345   3.557011
C            0.373134   4.355345   9.643511
C            0.373134   4.355345  15.730011
C            0.373134  12.199845   3.557011
C            0.373134  12.199845   9.643511
C            0.373134  12.199845  15.730011
C            0.373134  20.044345   3.557011
C            0.373134  20.044345   9.643511
C            0.373134  20.044345  15.730011
C            6.921634   4.355345   3.557011
C            6.921634   4.355345   9.643511
C            6.921634   4.355345  15.730011
C            6.921634  12.199845   3.557011
C            6.921634  12.199845   9.643511
C            6.921634  12.199845  15.730011
C            6.921634  20.044345   3.557011
C            6.921634  20.044345   9.643511
C            6.921634  20.044345  15.730011
C           13.470134   4.355345   3.557011
C           13.470134   4.355345   9.643511
C           13.470134   4.355345  15.730011
C           13.470134  12.199845   3.557011
C           13.470134  12.199845   9.643511
C           13.470134  12.199845  15.730011
C           13.470134  20.044345   3.557011
C           13.470134  20.044345   9.643511
C           13.470134  20.044345  15.730011
C            2.901116   4.355345   0.513761
C            2.901116   4.355345   6.600261
C            2.901116   4.355345  12.686761
C            2.901116  12.199845   0.513761
C            2.901116  12.199845   6.600261
C            2.901116  12.199845  12.686761
C            2.901116  20.044345   0.513761
C            2.901116  20.044345   6.600261
C            2.901116  20.044345  12.686761
C            9.449616   4.355345   0.513761
C            9.449616   4.355345   6.600261
C            9.449616   4.355345  12.686761
C            9.449616  12.199845   0.513761
C            9.449616  12.199845   6.600261
C            9.449616  12.199845  12.686761
C            9.449616  20.044345   0.513761
C            9.449616  20.044345   6.600261
C            9.449616  20.044345  12.686761
C           15.998116   4.355345   0.513761
C           15.998116   4.355345   6.600261
C           15.998116   4.355345  12.686761
C           15.998116  12.199845   0.513761
C           15.998116  12.199845   6.600261
C           15.998116  12.199845  12.686761
C           15.998116  20.044345   0.513761
C           15.998116  20.044345   6.600261
C           15.998116  20.044345  12.686761
C            3.647384   7.411405   3.557011
C            3.647384   7.411405   9.643511
C            3.647384   7.411405  15.730011
C            3.647384  15.255905   3.557011
C            3.647384  15.255905   9.643511
C            3.647384  15.255905  15.730011
C            3.647384  23.100405   3.557011
C            3.647384  23.100405   9.643511
C            3.647384  23.100405  15.730011
C           10.195884   7.411405   3.557011
C           10.195884   7.411405   9.643511
C           10.195884   7.411405  15.730011
C           10.195884  15.255905   3.557011
C           10.195884  15.255905   9.643511
C           10.195884  15.255905  15.730011
C           10.195884  23.100405   3.557011
C           10.195884  23.100405   9.643511
C           10.195884  23.100405  15.730011
C           16.744384   7.411405   3.557011
C           16.744384   7.411405   9.643511
C           16.744384   7.411405  15.730011
C           16.744384  15.255905   3.557011
C           16.744384  15.255905   9.643511
C           16.744384  15.255905  15.730011
C           16.744384  23.100405   3.557011
C           16.744384  23.100405   9.643511
C           16.744384  23.100405  15.730011
C            6.175366   3.489155   2.529489
C            6.175366   3.489155   8.615989
C            6.175366   3.489155  14.702489
C            6.175366  11.333655   2.529489
C            6.175366  11.333655   8.615989
C            6.175366  11.333655  14.702489
C            6.175366  19.178155   2.529489
C            6.175366  19.178155   8.615989
C            6.175366  19.178155  14.702489
C           12.723866   3.489155   2.529489
C           12.723866   3.489155   8.615989
C           12.723866   3.489155  14.702489
C           12.723866  11.333655   2.529489
C           12.723866  11.333655   8.615989
C           12.723866  11.333655  14.702489
C           12.723866  19.178155   2.529489
C           12.723866  19.178155   8.615989
C           12.723866  19.178155  14.702489
C           19.272366   3.489155   2.529489
C           19.272366   3.489155   8.615989
C           19.272366   3.489155  14.702489
C           19.272366  11.333655   2.529489
C           19.272366  11.333655   8.615989
C           19.272366  11.333655  14.702489
C           19.272366  19.178155   2.529489
C           19.272366  19.178155   8.615989
C           19.272366  19.178155  14.702489
C            3.647384   3.489155   5.572739
C            3.647384   3.489155  11.659239
C            3.647384   3.489155  17.745739
C            3.647384  11.333655   5.572739
C            3.647384  11.333655  11.659239
C            3.647384  11.333655  17.745739
C            3.647384  19.178155   5.572739
C            3.647384  19.178155  11.659239
C            3.647384  19.178155  17.745739
C           10.195884   3.489155   5.572739
C           10.195884   3.489155  11.659239
C           10.195884   3.489155  17.745739
C           10.195884  11.333655   5.572739
C           10.195884  11.333655  11.659239
C           10.195884  11.333655  17.745739
C           10.195884  19.178155   5.572739
C           10.195884  19.178155  11.659239
C           10.195884  19.178155  17.745739
C           16.744384   3.489155   5.572739
C           16.744384   3.489155  11.659239
C           16.744384   3.489155  17.745739
C           16.744384  11.333655   5.572739
C           16.744384  11.333655  11.659239
C           16.744384  11.333655  17.745739
C           16.744384  19.178155   5.572739
C           16.744384  19.178155  11.659239
C           16.744384  19.178155  17.745739
C            2.901116   0.433095   2.529489
C            2.901116   0.433095   8.615989
C            2.901116   0.433095  14.702489
C            2.901116   8.277595   2.529489
C            2.901116   8.277595   8.615989
C            2.901116   8.277595  14.702489
C            2.901116  16.122095   2.529489
C            2.901116  16.122095   8.615989
C            2.901116  16.122095  14.702489
C            9.449616   0.433095   2.529489
C            9.449616   0.433095   8.615989
C            9.449616   0.433095  14.702489
C            9.449616   8.277595   2.529489
C            9.449616   8.277595   8.615989
C            9.449616   8.277595  14.702489
C            9.449616  16.122095   2.529489
C            9.449616  16.122095   8.615989
C            9.449616  16.122095  14.702489
C           15.998116   0.433095   2.529489
C           15.998116   0.433095   8.615989
C           15.998116   0.433095  14.702489
C           15.998116   8.277595   2.529489
C           15.998116   8.277595   8.615989
C           15.998116   8.277595  14.702489
C           15.998116  16.122095   2.529489
C           15.998116  16.122095   8.615989
C           15.998116  16.122095  14.702489
C            6.175366   7.411405   0.513761
C            6.175366   7.411405   6.600261
C            6.175366   7.411405  12.686761
C            6.175366  15.255905   0.513761
C            6.175366  15.255905   6.600261
C            6.175366  15.255905  12.686761
C            6.175366  23.100405   0.513761
C            6.175366  23.100405   6.600261
C            6.175366  23.100405  12.686761
C           12.723866   7.411405   0.513761
C           12.723866   7.411405   6.600261
C           12.723866   7.411405  12.686761
C           12.723866  15.255905   0.513761
C           12.723866  15.255905   6.600261
C           12.723866  15.255905  12.686761
C           12.723866  23.100405   0.513761
C           12.723866  23.100405   6.600261
C           12.723866  23.100405  12.686761
C           19.272366   7.411405   0.513761
C           19.272366   7.411405   6.600261
C           19.272366   7.411405  12.686761
C           19.272366  15.255905   0.513761
C           19.272366  15.255905   6.600261
C           19.272366  15.255905  12.686761
C           19.272366  23.100405   0.513761
C           19.272366  23.100405   6.600261
C           19.272366  23.100405  12.686761
C            0.373134   0.433095   5.572739
C            0.373134   0.433095  11.659239
C            0.373134   0.433095  17.745739
C            0.373134   8.277595   5.572739
C            0.373134   8.277595  11.659239
C            0.373134   8.277595  17.745739
C            0.373134  16.122095   5.572739
C            0.373134  16.122095  11.659239
C            0.373134  16.122095  17.745739
C            6.921634   0.433095   5.572739
C            6.921634   0.433095  11.659239
C            6.921634   0.433095  17.745739
C            6.921634   8.277595   5.572739
C            6.921634   8.277595  11.659239
C            6.921634   8.277595  17.745739
C            6.921634  16.122095   5.572739
C            6.921634  16.122095  11.659239
C            6.921634  16.122095  17.745739
C           13.470134   0.433095   5.572739
C           13.470134   0.433095  11.659239
C           13.470134   0.433095  17.745739
C           13.470134   8.277595   5.572739
C           13.470134   8.277595  11.659239
C           13.470134   8.277595  17.745739
C           13.470134  16.122095   5.572739
C           13.470134  16.122095  11.659239
C           13.470134  16.122095  17.745739
