432
Crystal created from CIF file. Box size:      15.391500000000      15.391500000000      15.391500000000
N                1.484253650000       4.049503650000       3.646246350000
N                1.484253650000       4.049503650000       8.776746350000
N                1.484253650000       4.049503650000      13.907246350000
N                1.484253650000       9.180003650000       3.646246350000
N                1.484253650000       9.180003650000       8.776746350000
N                1.484253650000       9.180003650000      13.907246350000
N                1.484253650000      14.310503650000       3.646246350000
N                1.484253650000      14.310503650000       8.776746350000
N                1.484253650000      14.310503650000      13.907246350000
N                6.614753650000       4.049503650000       3.646246350000
N                6.614753650000       4.049503650000       8.776746350000
N                6.614753650000       4.049503650000      13.907246350000
N                6.614753650000       9.180003650000       3.646246350000
N                6.614753650000       9.180003650000       8.776746350000
N                6.614753650000       9.180003650000      13.907246350000
N                6.614753650000      14.310503650000       3.646246350000
N                6.614753650000      14.310503650000       8.776746350000
N                6.614753650000      14.310503650000      13.907246350000
N               11.745253650000       4.049503650000       3.646246350000
N               11.745253650000       4.049503650000       8.776746350000
N               11.745253650000       4.049503650000      13.907246350000
N               11.745253650000       9.180003650000       3.646246350000
N               11.745253650000       9.180003650000       8.776746350000
N               11.745253650000       9.180003650000      13.907246350000
N               11.745253650000      14.310503650000       3.646246350000
N               11.745253650000      14.310503650000       8.776746350000
N               11.745253650000      14.310503650000      13.907246350000
N                4.049503650000       3.646246350000       1.484253650000
N                4.049503650000       3.646246350000       6.614753650000
N                4.049503650000       3.646246350000      11.745253650000
N                4.049503650000       8.776746350000       1.484253650000
N                4.049503650000       8.776746350000       6.614753650000
N                4.049503650000       8.776746350000      11.745253650000
N                4.049503650000      13.907246350000       1.484253650000
N                4.049503650000      13.907246350000       6.614753650000
N                4.049503650000      13.907246350000      11.745253650000
N                9.180003650000       3.646246350000       1.484253650000
N                9.180003650000       3.646246350000       6.614753650000
N                9.180003650000       3.646246350000      11.745253650000
N                9.180003650000       8.776746350000       1.484253650000
N                9.180003650000       8.776746350000       6.614753650000
N                9.180003650000       8.776746350000      11.745253650000
N                9.180003650000      13.907246350000       1.484253650000
N                9.180003650000      13.907246350000       6.614753650000
N                9.180003650000      13.907246350000      11.745253650000
N               14.310503650000       3.646246350000       1.484253650000
N               14.310503650000       3.646246350000       6.614753650000
N               14.310503650000       3.646246350000      11.745253650000
N               14.310503650000       8.776746350000       1.484253650000
N               14.310503650000       8.776746350000       6.614753650000
N               14.310503650000       8.776746350000      11.745253650000
N               14.310503650000      13.907246350000       1.484253650000
N               14.310503650000      13.907246350000       6.614753650000
N               14.310503650000      13.907246350000      11.745253650000
N                3.646246350000       1.484253650000       4.049503650000
N                3.646246350000       1.484253650000       9.180003650000
N                3.646246350000       1.484253650000      14.310503650000
N                3.646246350000       6.614753650000       4.049503650000
N                3.646246350000       6.614753650000       9.180003650000
N                3.646246350000       6.614753650000      14.310503650000
N                3.646246350000      11.745253650000       4.049503650000
N                3.646246350000      11.745253650000       9.180003650000
N                3.646246350000      11.745253650000      14.310503650000
N                8.776746350000       1.484253650000       4.049503650000
N                8.776746350000       1.484253650000       9.180003650000
N                8.776746350000       1.484253650000      14.310503650000
N                8.776746350000       6.614753650000       4.049503650000
N                8.776746350000       6.614753650000       9.180003650000
N                8.776746350000       6.614753650000      14.310503650000
N                8.776746350000      11.745253650000       4.049503650000
N                8.776746350000      11.745253650000       9.180003650000
N                8.776746350000      11.745253650000      14.310503650000
N               13.907246350000       1.484253650000       4.049503650000
N               13.907246350000       1.484253650000       9.180003650000
N               13.907246350000       1.484253650000      14.310503650000
N               13.907246350000       6.614753650000       4.049503650000
N               13.907246350000       6.614753650000       9.180003650000
N               13.907246350000       6.614753650000      14.310503650000
N               13.907246350000      11.745253650000       4.049503650000
N               13.907246350000      11.745253650000       9.180003650000
N               13.907246350000      11.745253650000      14.310503650000
N                1.080996350000       1.080996350000       1.080996350000
N                1.080996350000       1.080996350000       6.211496350000
N                1.080996350000       1.080996350000      11.341996350000
N                1.080996350000       6.211496350000       1.080996350000
N                1.080996350000       6.211496350000       6.211496350000
N                1.080996350000       6.211496350000      11.341996350000
N                1.080996350000      11.341996350000       1.080996350000
N                1.080996350000      11.341996350000       6.211496350000
N                1.080996350000      11.341996350000      11.341996350000
N                6.211496350000       1.080996350000       1.080996350000
N                6.211496350000       1.080996350000       6.211496350000
N                6.211496350000       1.080996350000      11.341996350000
N                6.211496350000       6.211496350000       1.080996350000
N                6.211496350000       6.211496350000       6.211496350000
N                6.211496350000       6.211496350000      11.341996350000
N                6.211496350000      11.341996350000       1.080996350000
N                6.211496350000      11.341996350000       6.211496350000
N                6.211496350000      11.341996350000      11.341996350000
N               11.341996350000       1.080996350000       1.080996350000
N               11.341996350000       1.080996350000       6.211496350000
N               11.341996350000       1.080996350000      11.341996350000
N               11.341996350000       6.211496350000       1.080996350000
N               11.341996350000       6.211496350000       6.211496350000
N               11.341996350000       6.211496350000      11.341996350000
N               11.341996350000      11.341996350000       1.080996350000
N               11.341996350000      11.341996350000       6.211496350000
N               11.341996350000      11.341996350000      11.341996350000
H                3.237858550000       3.935606550000       1.970625050000
H                3.237858550000       3.935606550000       7.101125050000
H                3.237858550000       3.935606550000      12.231625050000
H                3.237858550000       9.066106550000       1.970625050000
H                3.237858550000       9.066106550000       7.101125050000
H                3.237858550000       9.066106550000      12.231625050000
H                3.237858550000      14.196606550000       1.970625050000
H                3.237858550000      14.196606550000       7.101125050000
H                3.237858550000      14.196606550000      12.231625050000
H                8.368358550000       3.935606550000       1.970625050000
H                8.368358550000       3.935606550000       7.101125050000
H                8.368358550000       3.935606550000      12.231625050000
H                8.368358550000       9.066106550000       1.970625050000
H                8.368358550000       9.066106550000       7.101125050000
H                8.368358550000       9.066106550000      12.231625050000
H                8.368358550000      14.196606550000       1.970625050000
H                8.368358550000      14.196606550000       7.101125050000
H                8.368358550000      14.196606550000      12.231625050000
H               13.498858550000       3.935606550000       1.970625050000
H               13.498858550000       3.935606550000       7.101125050000
H               13.498858550000       3.935606550000      12.231625050000
H               13.498858550000       9.066106550000       1.970625050000
H               13.498858550000       9.066106550000       7.101125050000
H               13.498858550000       9.066106550000      12.231625050000
H               13.498858550000      14.196606550000       1.970625050000
H               13.498858550000      14.196606550000       7.101125050000
H               13.498858550000      14.196606550000      12.231625050000
H                1.194893450000       4.535875050000       4.457891450000
H                1.194893450000       4.535875050000       9.588391450000
H                1.194893450000       4.535875050000      14.718891450000
H                1.194893450000       9.666375050000       4.457891450000
H                1.194893450000       9.666375050000       9.588391450000
H                1.194893450000       9.666375050000      14.718891450000
H                1.194893450000      14.796875050000       4.457891450000
H                1.194893450000      14.796875050000       9.588391450000
H                1.194893450000      14.796875050000      14.718891450000
H                6.325393450000       4.535875050000       4.457891450000
H                6.325393450000       4.535875050000       9.588391450000
H                6.325393450000       4.535875050000      14.718891450000
H                6.325393450000       9.666375050000       4.457891450000
H                6.325393450000       9.666375050000       9.588391450000
H                6.325393450000       9.666375050000      14.718891450000
H                6.325393450000      14.796875050000       4.457891450000
H                6.325393450000      14.796875050000       9.588391450000
H                6.325393450000      14.796875050000      14.718891450000
H               11.455893450000       4.535875050000       4.457891450000
H               11.455893450000       4.535875050000       9.588391450000
H               11.455893450000       4.535875050000      14.718891450000
H               11.455893450000       9.666375050000       4.457891450000
H               11.455893450000       9.666375050000       9.588391450000
H               11.455893450000       9.666375050000      14.718891450000
H               11.455893450000      14.796875050000       4.457891450000
H               11.455893450000      14.796875050000       9.588391450000
H               11.455893450000      14.796875050000      14.718891450000
H                0.672608550000       3.760143450000       3.159874950000
H                0.672608550000       3.760143450000       8.290374950000
H                0.672608550000       3.760143450000      13.420874950000
H                0.672608550000       8.890643450000       3.159874950000
H                0.672608550000       8.890643450000       8.290374950000
H                0.672608550000       8.890643450000      13.420874950000
H                0.672608550000      14.021143450000       3.159874950000
H                0.672608550000      14.021143450000       8.290374950000
H                0.672608550000      14.021143450000      13.420874950000
H                5.803108550000       3.760143450000       3.159874950000
H                5.803108550000       3.760143450000       8.290374950000
H                5.803108550000       3.760143450000      13.420874950000
H                5.803108550000       8.890643450000       3.159874950000
H                5.803108550000       8.890643450000       8.290374950000
H                5.803108550000       8.890643450000      13.420874950000
H                5.803108550000      14.021143450000       3.159874950000
H                5.803108550000      14.021143450000       8.290374950000
H                5.803108550000      14.021143450000      13.420874950000
H               10.933608550000       3.760143450000       3.159874950000
H               10.933608550000       3.760143450000       8.290374950000
H               10.933608550000       3.760143450000      13.420874950000
H               10.933608550000       8.890643450000       3.159874950000
H               10.933608550000       8.890643450000       8.290374950000
H               10.933608550000       8.890643450000      13.420874950000
H               10.933608550000      14.021143450000       3.159874950000
H               10.933608550000      14.021143450000       8.290374950000
H               10.933608550000      14.021143450000      13.420874950000
H                1.970625050000       3.237858550000       3.935606550000
H                1.970625050000       3.237858550000       9.066106550000
H                1.970625050000       3.237858550000      14.196606550000
H                1.970625050000       8.368358550000       3.935606550000
H                1.970625050000       8.368358550000       9.066106550000
H                1.970625050000       8.368358550000      14.196606550000
H                1.970625050000      13.498858550000       3.935606550000
H                1.970625050000      13.498858550000       9.066106550000
H                1.970625050000      13.498858550000      14.196606550000
H                7.101125050000       3.237858550000       3.935606550000
H                7.101125050000       3.237858550000       9.066106550000
H                7.101125050000       3.237858550000      14.196606550000
H                7.101125050000       8.368358550000       3.935606550000
H                7.101125050000       8.368358550000       9.066106550000
H                7.101125050000       8.368358550000      14.196606550000
H                7.101125050000      13.498858550000       3.935606550000
H                7.101125050000      13.498858550000       9.066106550000
H                7.101125050000      13.498858550000      14.196606550000
H               12.231625050000       3.237858550000       3.935606550000
H               12.231625050000       3.237858550000       9.066106550000
H               12.231625050000       3.237858550000      14.196606550000
H               12.231625050000       8.368358550000       3.935606550000
H               12.231625050000       8.368358550000       9.066106550000
H               12.231625050000       8.368358550000      14.196606550000
H               12.231625050000      13.498858550000       3.935606550000
H               12.231625050000      13.498858550000       9.066106550000
H               12.231625050000      13.498858550000      14.196606550000
H                4.535875050000       4.457891450000       1.194893450000
H                4.535875050000       4.457891450000       6.325393450000
H                4.535875050000       4.457891450000      11.455893450000
H                4.535875050000       9.588391450000       1.194893450000
H                4.535875050000       9.588391450000       6.325393450000
H                4.535875050000       9.588391450000      11.455893450000
H                4.535875050000      14.718891450000       1.194893450000
H                4.535875050000      14.718891450000       6.325393450000
H                4.535875050000      14.718891450000      11.455893450000
H                9.666375050000       4.457891450000       1.194893450000
H                9.666375050000       4.457891450000       6.325393450000
H                9.666375050000       4.457891450000      11.455893450000
H                9.666375050000       9.588391450000       1.194893450000
H                9.666375050000       9.588391450000       6.325393450000
H                9.666375050000       9.588391450000      11.455893450000
H                9.666375050000      14.718891450000       1.194893450000
H                9.666375050000      14.718891450000       6.325393450000
H                9.666375050000      14.718891450000      11.455893450000
H               14.796875050000       4.457891450000       1.194893450000
H               14.796875050000       4.457891450000       6.325393450000
H               14.796875050000       4.457891450000      11.455893450000
H               14.796875050000       9.588391450000       1.194893450000
H               14.796875050000       9.588391450000       6.325393450000
H               14.796875050000       9.588391450000      11.455893450000
H               14.796875050000      14.718891450000       1.194893450000
H               14.796875050000      14.718891450000       6.325393450000
H               14.796875050000      14.718891450000      11.455893450000
H                3.760143450000       3.159874950000       0.672608550000
H                3.760143450000       3.159874950000       5.803108550000
H                3.760143450000       3.159874950000      10.933608550000
H                3.760143450000       8.290374950000       0.672608550000
H                3.760143450000       8.290374950000       5.803108550000
H                3.760143450000       8.290374950000      10.933608550000
H                3.760143450000      13.420874950000       0.672608550000
H                3.760143450000      13.420874950000       5.803108550000
H                3.760143450000      13.420874950000      10.933608550000
H                8.890643450000       3.159874950000       0.672608550000
H                8.890643450000       3.159874950000       5.803108550000
H                8.890643450000       3.159874950000      10.933608550000
H                8.890643450000       8.290374950000       0.672608550000
H                8.890643450000       8.290374950000       5.803108550000
H                8.890643450000       8.290374950000      10.933608550000
H                8.890643450000      13.420874950000       0.672608550000
H                8.890643450000      13.420874950000       5.803108550000
H                8.890643450000      13.420874950000      10.933608550000
H               14.021143450000       3.159874950000       0.672608550000
H               14.021143450000       3.159874950000       5.803108550000
H               14.021143450000       3.159874950000      10.933608550000
H               14.021143450000       8.290374950000       0.672608550000
H               14.021143450000       8.290374950000       5.803108550000
H               14.021143450000       8.290374950000      10.933608550000
H               14.021143450000      13.420874950000       0.672608550000
H               14.021143450000      13.420874950000       5.803108550000
H               14.021143450000      13.420874950000      10.933608550000
H                3.159874950000       0.672608550000       3.760143450000
H                3.159874950000       0.672608550000       8.890643450000
H                3.159874950000       0.672608550000      14.021143450000
H                3.159874950000       5.803108550000       3.760143450000
H                3.159874950000       5.803108550000       8.890643450000
H                3.159874950000       5.803108550000      14.021143450000
H                3.159874950000      10.933608550000       3.760143450000
H                3.159874950000      10.933608550000       8.890643450000
H                3.159874950000      10.933608550000      14.021143450000
H                8.290374950000       0.672608550000       3.760143450000
H                8.290374950000       0.672608550000       8.890643450000
H                8.290374950000       0.672608550000      14.021143450000
H                8.290374950000       5.803108550000       3.760143450000
H                8.290374950000       5.803108550000       8.890643450000
H                8.290374950000       5.803108550000      14.021143450000
H                8.290374950000      10.933608550000       3.760143450000
H                8.290374950000      10.933608550000       8.890643450000
H                8.290374950000      10.933608550000      14.021143450000
H               13.420874950000       0.672608550000       3.760143450000
H               13.420874950000       0.672608550000       8.890643450000
H               13.420874950000       0.672608550000      14.021143450000
H               13.420874950000       5.803108550000       3.760143450000
H               13.420874950000       5.803108550000       8.890643450000
H               13.420874950000       5.803108550000      14.021143450000
H               13.420874950000      10.933608550000       3.760143450000
H               13.420874950000      10.933608550000       8.890643450000
H               13.420874950000      10.933608550000      14.021143450000
H                3.935606550000       1.970625050000       3.237858550000
H                3.935606550000       1.970625050000       8.368358550000
H                3.935606550000       1.970625050000      13.498858550000
H                3.935606550000       7.101125050000       3.237858550000
H                3.935606550000       7.101125050000       8.368358550000
H                3.935606550000       7.101125050000      13.498858550000
H                3.935606550000      12.231625050000       3.237858550000
H                3.935606550000      12.231625050000       8.368358550000
H                3.935606550000      12.231625050000      13.498858550000
H                9.066106550000       1.970625050000       3.237858550000
H                9.066106550000       1.970625050000       8.368358550000
H                9.066106550000       1.970625050000      13.498858550000
H                9.066106550000       7.101125050000       3.237858550000
H                9.066106550000       7.101125050000       8.368358550000
H                9.066106550000       7.101125050000      13.498858550000
H                9.066106550000      12.231625050000       3.237858550000
H                9.066106550000      12.231625050000       8.368358550000
H                9.066106550000      12.231625050000      13.498858550000
H               14.196606550000       1.970625050000       3.237858550000
H               14.196606550000       1.970625050000       8.368358550000
H               14.196606550000       1.970625050000      13.498858550000
H               14.196606550000       7.101125050000       3.237858550000
H               14.196606550000       7.101125050000       8.368358550000
H               14.196606550000       7.101125050000      13.498858550000
H               14.196606550000      12.231625050000       3.237858550000
H               14.196606550000      12.231625050000       8.368358550000
H               14.196606550000      12.231625050000      13.498858550000
H                4.457891450000       1.194893450000       4.535875050000
H                4.457891450000       1.194893450000       9.666375050000
H                4.457891450000       1.194893450000      14.796875050000
H                4.457891450000       6.325393450000       4.535875050000
H                4.457891450000       6.325393450000       9.666375050000
H                4.457891450000       6.325393450000      14.796875050000
H                4.457891450000      11.455893450000       4.535875050000
H                4.457891450000      11.455893450000       9.666375050000
H                4.457891450000      11.455893450000      14.796875050000
H                9.588391450000       1.194893450000       4.535875050000
H                9.588391450000       1.194893450000       9.666375050000
H                9.588391450000       1.194893450000      14.796875050000
H                9.588391450000       6.325393450000       4.535875050000
H                9.588391450000       6.325393450000       9.666375050000
H                9.588391450000       6.325393450000      14.796875050000
H                9.588391450000      11.455893450000       4.535875050000
H                9.588391450000      11.455893450000       9.666375050000
H                9.588391450000      11.455893450000      14.796875050000
H               14.718891450000       1.194893450000       4.535875050000
H               14.718891450000       1.194893450000       9.666375050000
H               14.718891450000       1.194893450000      14.796875050000
H               14.718891450000       6.325393450000       4.535875050000
H               14.718891450000       6.325393450000       9.666375050000
H               14.718891450000       6.325393450000      14.796875050000
H               14.718891450000      11.455893450000       4.535875050000
H               14.718891450000      11.455893450000       9.666375050000
H               14.718891450000      11.455893450000      14.796875050000
H                0.594624950000       1.892641450000       1.370356550000
H                0.594624950000       1.892641450000       6.500856550000
H                0.594624950000       1.892641450000      11.631356550000
H                0.594624950000       7.023141450000       1.370356550000
H                0.594624950000       7.023141450000       6.500856550000
H                0.594624950000       7.023141450000      11.631356550000
H                0.594624950000      12.153641450000       1.370356550000
H                0.594624950000      12.153641450000       6.500856550000
H                0.594624950000      12.153641450000      11.631356550000
H                5.725124950000       1.892641450000       1.370356550000
H                5.725124950000       1.892641450000       6.500856550000
H                5.725124950000       1.892641450000      11.631356550000
H                5.725124950000       7.023141450000       1.370356550000
H                5.725124950000       7.023141450000       6.500856550000
H                5.725124950000       7.023141450000      11.631356550000
H                5.725124950000      12.153641450000       1.370356550000
H                5.725124950000      12.153641450000       6.500856550000
H                5.725124950000      12.153641450000      11.631356550000
H               10.855624950000       1.892641450000       1.370356550000
H               10.855624950000       1.892641450000       6.500856550000
H               10.855624950000       1.892641450000      11.631356550000
H               10.855624950000       7.023141450000       1.370356550000
H               10.855624950000       7.023141450000       6.500856550000
H               10.855624950000       7.023141450000      11.631356550000
H               10.855624950000      12.153641450000       1.370356550000
H               10.855624950000      12.153641450000       6.500856550000
H               10.855624950000      12.153641450000      11.631356550000
H                1.370356550000       0.594624950000       1.892641450000
H                1.370356550000       0.594624950000       7.023141450000
H                1.370356550000       0.594624950000      12.153641450000
H                1.370356550000       5.725124950000       1.892641450000
H                1.370356550000       5.725124950000       7.023141450000
H                1.370356550000       5.725124950000      12.153641450000
H                1.370356550000      10.855624950000       1.892641450000
H                1.370356550000      10.855624950000       7.023141450000
H                1.370356550000      10.855624950000      12.153641450000
H                6.500856550000       0.594624950000       1.892641450000
H                6.500856550000       0.594624950000       7.023141450000
H                6.500856550000       0.594624950000      12.153641450000
H                6.500856550000       5.725124950000       1.892641450000
H                6.500856550000       5.725124950000       7.023141450000
H                6.500856550000       5.725124950000      12.153641450000
H                6.500856550000      10.855624950000       1.892641450000
H                6.500856550000      10.855624950000       7.023141450000
H                6.500856550000      10.855624950000      12.153641450000
H               11.631356550000       0.594624950000       1.892641450000
H               11.631356550000       0.594624950000       7.023141450000
H               11.631356550000       0.594624950000      12.153641450000
H               11.631356550000       5.725124950000       1.892641450000
H               11.631356550000       5.725124950000       7.023141450000
H               11.631356550000       5.725124950000      12.153641450000
H               11.631356550000      10.855624950000       1.892641450000
H               11.631356550000      10.855624950000       7.023141450000
H               11.631356550000      10.855624950000      12.153641450000
H                1.892641450000       1.370356550000       0.594624950000
H                1.892641450000       1.370356550000       5.725124950000
H                1.892641450000       1.370356550000      10.855624950000
H                1.892641450000       6.500856550000       0.594624950000
H                1.892641450000       6.500856550000       5.725124950000
H                1.892641450000       6.500856550000      10.855624950000
H                1.892641450000      11.631356550000       0.594624950000
H                1.892641450000      11.631356550000       5.725124950000
H                1.892641450000      11.631356550000      10.855624950000
H                7.023141450000       1.370356550000       0.594624950000
H                7.023141450000       1.370356550000       5.725124950000
H                7.023141450000       1.370356550000      10.855624950000
H                7.023141450000       6.500856550000       0.594624950000
H                7.023141450000       6.500856550000       5.725124950000
H                7.023141450000       6.500856550000      10.855624950000
H                7.023141450000      11.631356550000       0.594624950000
H                7.023141450000      11.631356550000       5.725124950000
H                7.023141450000      11.631356550000      10.855624950000
H               12.153641450000       1.370356550000       0.594624950000
H               12.153641450000       1.370356550000       5.725124950000
H               12.153641450000       1.370356550000      10.855624950000
H               12.153641450000       6.500856550000       0.594624950000
H               12.153641450000       6.500856550000       5.725124950000
H               12.153641450000       6.500856550000      10.855624950000
H               12.153641450000      11.631356550000       0.594624950000
H               12.153641450000      11.631356550000       5.725124950000
H               12.153641450000      11.631356550000      10.855624950000
