12
Monomer 1
 H    15.55299400   16.48311600   13.70376300
 H    16.59646200   18.10429800   12.09387900
 H    13.76683100   17.25649800   15.22716000
 H    15.79316900   20.42350200   12.01284000
 H    12.96353800   19.57570200   15.14612100
 H    14.00700600   21.19688400   13.53623700
 C    15.22857300   17.52779400   13.66698900
 C    15.79760300   18.41892600   12.76194000
 C    14.21097000   17.93756400   14.52232500
 C    15.34903000   19.74243600   12.71767500
 C    13.76239700   19.26107400   14.47806000
 C    14.33142700   20.15220600   13.57301100
