216
Crystal created from CIF file. Box size:   15.57900   15.57900   15.57900
N            1.454040   4.050540   3.738960
N            1.454040   4.050540   8.931960
N            1.454040   4.050540  14.124960
N            1.454040   9.243540   3.738960
N            1.454040   9.243540   8.931960
N            1.454040   9.243540  14.124960
N            1.454040  14.436540   3.738960
N            1.454040  14.436540   8.931960
N            1.454040  14.436540  14.124960
N            6.647040   4.050540   3.738960
N            6.647040   4.050540   8.931960
N            6.647040   4.050540  14.124960
N            6.647040   9.243540   3.738960
N            6.647040   9.243540   8.931960
N            6.647040   9.243540  14.124960
N            6.647040  14.436540   3.738960
N            6.647040  14.436540   8.931960
N            6.647040  14.436540  14.124960
N           11.840040   4.050540   3.738960
N           11.840040   4.050540   8.931960
N           11.840040   4.050540  14.124960
N           11.840040   9.243540   3.738960
N           11.840040   9.243540   8.931960
N           11.840040   9.243540  14.124960
N           11.840040  14.436540   3.738960
N           11.840040  14.436540   8.931960
N           11.840040  14.436540  14.124960
N            4.050540   3.738960   1.454040
N            4.050540   3.738960   6.647040
N            4.050540   3.738960  11.840040
N            4.050540   8.931960   1.454040
N            4.050540   8.931960   6.647040
N            4.050540   8.931960  11.840040
N            4.050540  14.124960   1.454040
N            4.050540  14.124960   6.647040
N            4.050540  14.124960  11.840040
N            9.243540   3.738960   1.454040
N            9.243540   3.738960   6.647040
N            9.243540   3.738960  11.840040
N            9.243540   8.931960   1.454040
N            9.243540   8.931960   6.647040
N            9.243540   8.931960  11.840040
N            9.243540  14.124960   1.454040
N            9.243540  14.124960   6.647040
N            9.243540  14.124960  11.840040
N           14.436540   3.738960   1.454040
N           14.436540   3.738960   6.647040
N           14.436540   3.738960  11.840040
N           14.436540   8.931960   1.454040
N           14.436540   8.931960   6.647040
N           14.436540   8.931960  11.840040
N           14.436540  14.124960   1.454040
N           14.436540  14.124960   6.647040
N           14.436540  14.124960  11.840040
N            3.738960   1.454040   4.050540
N            3.738960   1.454040   9.243540
N            3.738960   1.454040  14.436540
N            3.738960   6.647040   4.050540
N            3.738960   6.647040   9.243540
N            3.738960   6.647040  14.436540
N            3.738960  11.840040   4.050540
N            3.738960  11.840040   9.243540
N            3.738960  11.840040  14.436540
N            8.931960   1.454040   4.050540
N            8.931960   1.454040   9.243540
N            8.931960   1.454040  14.436540
N            8.931960   6.647040   4.050540
N            8.931960   6.647040   9.243540
N            8.931960   6.647040  14.436540
N            8.931960  11.840040   4.050540
N            8.931960  11.840040   9.243540
N            8.931960  11.840040  14.436540
N           14.124960   1.454040   4.050540
N           14.124960   1.454040   9.243540
N           14.124960   1.454040  14.436540
N           14.124960   6.647040   4.050540
N           14.124960   6.647040   9.243540
N           14.124960   6.647040  14.436540
N           14.124960  11.840040   4.050540
N           14.124960  11.840040   9.243540
N           14.124960  11.840040  14.436540
N            1.142460   1.142460   1.142460
N            1.142460   1.142460   6.335460
N            1.142460   1.142460  11.528460
N            1.142460   6.335460   1.142460
N            1.142460   6.335460   6.335460
N            1.142460   6.335460  11.528460
N            1.142460  11.528460   1.142460
N            1.142460  11.528460   6.335460
N            1.142460  11.528460  11.528460
N            6.335460   1.142460   1.142460
N            6.335460   1.142460   6.335460
N            6.335460   1.142460  11.528460
N            6.335460   6.335460   1.142460
N            6.335460   6.335460   6.335460
N            6.335460   6.335460  11.528460
N            6.335460  11.528460   1.142460
N            6.335460  11.528460   6.335460
N            6.335460  11.528460  11.528460
N           11.528460   1.142460   1.142460
N           11.528460   1.142460   6.335460
N           11.528460   1.142460  11.528460
N           11.528460   6.335460   1.142460
N           11.528460   6.335460   6.335460
N           11.528460   6.335460  11.528460
N           11.528460  11.528460   1.142460
N           11.528460  11.528460   6.335460
N           11.528460  11.528460  11.528460
H            2.596500   0.000000   2.596500
H            2.596500   0.000000   7.789500
H            2.596500   0.000000  12.982500
H            2.596500   5.193000   2.596500
H            2.596500   5.193000   7.789500
H            2.596500   5.193000  12.982500
H            2.596500  10.386000   2.596500
H            2.596500  10.386000   7.789500
H            2.596500  10.386000  12.982500
H            7.789500   0.000000   2.596500
H            7.789500   0.000000   7.789500
H            7.789500   0.000000  12.982500
H            7.789500   5.193000   2.596500
H            7.789500   5.193000   7.789500
H            7.789500   5.193000  12.982500
H            7.789500  10.386000   2.596500
H            7.789500  10.386000   7.789500
H            7.789500  10.386000  12.982500
H           12.982500   0.000000   2.596500
H           12.982500   0.000000   7.789500
H           12.982500   0.000000  12.982500
H           12.982500   5.193000   2.596500
H           12.982500   5.193000   7.789500
H           12.982500   5.193000  12.982500
H           12.982500  10.386000   2.596500
H           12.982500  10.386000   7.789500
H           12.982500  10.386000  12.982500
H            0.000000   2.596500   2.596500
H            0.000000   2.596500   7.789500
H            0.000000   2.596500  12.982500
H            0.000000   7.789500   2.596500
H            0.000000   7.789500   7.789500
H            0.000000   7.789500  12.982500
H            0.000000  12.982500   2.596500
H            0.000000  12.982500   7.789500
H            0.000000  12.982500  12.982500
H            5.193000   2.596500   2.596500
H            5.193000   2.596500   7.789500
H            5.193000   2.596500  12.982500
H            5.193000   7.789500   2.596500
H            5.193000   7.789500   7.789500
H            5.193000   7.789500  12.982500
H            5.193000  12.982500   2.596500
H            5.193000  12.982500   7.789500
H            5.193000  12.982500  12.982500
H           10.386000   2.596500   2.596500
H           10.386000   2.596500   7.789500
H           10.386000   2.596500  12.982500
H           10.386000   7.789500   2.596500
H           10.386000   7.789500   7.789500
H           10.386000   7.789500  12.982500
H           10.386000  12.982500   2.596500
H           10.386000  12.982500   7.789500
H           10.386000  12.982500  12.982500
H            2.596500   2.596500   0.000000
H            2.596500   2.596500   5.193000
H            2.596500   2.596500  10.386000
H            2.596500   7.789500   0.000000
H            2.596500   7.789500   5.193000
H            2.596500   7.789500  10.386000
H            2.596500  12.982500   0.000000
H            2.596500  12.982500   5.193000
H            2.596500  12.982500  10.386000
H            7.789500   2.596500   0.000000
H            7.789500   2.596500   5.193000
H            7.789500   2.596500  10.386000
H            7.789500   7.789500   0.000000
H            7.789500   7.789500   5.193000
H            7.789500   7.789500  10.386000
H            7.789500  12.982500   0.000000
H            7.789500  12.982500   5.193000
H            7.789500  12.982500  10.386000
H           12.982500   2.596500   0.000000
H           12.982500   2.596500   5.193000
H           12.982500   2.596500  10.386000
H           12.982500   7.789500   0.000000
H           12.982500   7.789500   5.193000
H           12.982500   7.789500  10.386000
H           12.982500  12.982500   0.000000
H           12.982500  12.982500   5.193000
H           12.982500  12.982500  10.386000
H            0.000000   0.000000   0.000000
H            0.000000   0.000000   5.193000
H            0.000000   0.000000  10.386000
H            0.000000   5.193000   0.000000
H            0.000000   5.193000   5.193000
H            0.000000   5.193000  10.386000
H            0.000000  10.386000   0.000000
H            0.000000  10.386000   5.193000
H            0.000000  10.386000  10.386000
H            5.193000   0.000000   0.000000
H            5.193000   0.000000   5.193000
H            5.193000   0.000000  10.386000
H            5.193000   5.193000   0.000000
H            5.193000   5.193000   5.193000
H            5.193000   5.193000  10.386000
H            5.193000  10.386000   0.000000
H            5.193000  10.386000   5.193000
H            5.193000  10.386000  10.386000
H           10.386000   0.000000   0.000000
H           10.386000   0.000000   5.193000
H           10.386000   0.000000  10.386000
H           10.386000   5.193000   0.000000
H           10.386000   5.193000   5.193000
H           10.386000   5.193000  10.386000
H           10.386000  10.386000   0.000000
H           10.386000  10.386000   5.193000
H           10.386000  10.386000  10.386000
