108
Crystal created from CIF file. Box size:   15.41400   15.41400   15.41400
N            4.931966   2.775034   2.362966
N            4.931966   2.775034   7.500966
N            4.931966   2.775034  12.638966
N            4.931966   7.913034   2.362966
N            4.931966   7.913034   7.500966
N            4.931966   7.913034  12.638966
N            4.931966  13.051034   2.362966
N            4.931966  13.051034   7.500966
N            4.931966  13.051034  12.638966
N           10.069966   2.775034   2.362966
N           10.069966   2.775034   7.500966
N           10.069966   2.775034  12.638966
N           10.069966   7.913034   2.362966
N           10.069966   7.913034   7.500966
N           10.069966   7.913034  12.638966
N           10.069966  13.051034   2.362966
N           10.069966  13.051034   7.500966
N           10.069966  13.051034  12.638966
N           15.207966   2.775034   2.362966
N           15.207966   2.775034   7.500966
N           15.207966   2.775034  12.638966
N           15.207966   7.913034   2.362966
N           15.207966   7.913034   7.500966
N           15.207966   7.913034  12.638966
N           15.207966  13.051034   2.362966
N           15.207966  13.051034   7.500966
N           15.207966  13.051034  12.638966
N            2.775034   2.362966   4.931966
N            2.775034   2.362966  10.069966
N            2.775034   2.362966  15.207966
N            2.775034   7.500966   4.931966
N            2.775034   7.500966  10.069966
N            2.775034   7.500966  15.207966
N            2.775034  12.638966   4.931966
N            2.775034  12.638966  10.069966
N            2.775034  12.638966  15.207966
N            7.913034   2.362966   4.931966
N            7.913034   2.362966  10.069966
N            7.913034   2.362966  15.207966
N            7.913034   7.500966   4.931966
N            7.913034   7.500966  10.069966
N            7.913034   7.500966  15.207966
N            7.913034  12.638966   4.931966
N            7.913034  12.638966  10.069966
N            7.913034  12.638966  15.207966
N           13.051034   2.362966   4.931966
N           13.051034   2.362966  10.069966
N           13.051034   2.362966  15.207966
N           13.051034   7.500966   4.931966
N           13.051034   7.500966  10.069966
N           13.051034   7.500966  15.207966
N           13.051034  12.638966   4.931966
N           13.051034  12.638966  10.069966
N           13.051034  12.638966  15.207966
N            2.362966   4.931966   2.775034
N            2.362966   4.931966   7.913034
N            2.362966   4.931966  13.051034
N            2.362966  10.069966   2.775034
N            2.362966  10.069966   7.913034
N            2.362966  10.069966  13.051034
N            2.362966  15.207966   2.775034
N            2.362966  15.207966   7.913034
N            2.362966  15.207966  13.051034
N            7.500966   4.931966   2.775034
N            7.500966   4.931966   7.913034
N            7.500966   4.931966  13.051034
N            7.500966  10.069966   2.775034
N            7.500966  10.069966   7.913034
N            7.500966  10.069966  13.051034
N            7.500966  15.207966   2.775034
N            7.500966  15.207966   7.913034
N            7.500966  15.207966  13.051034
N           12.638966   4.931966   2.775034
N           12.638966   4.931966   7.913034
N           12.638966   4.931966  13.051034
N           12.638966  10.069966   2.775034
N           12.638966  10.069966   7.913034
N           12.638966  10.069966  13.051034
N           12.638966  15.207966   2.775034
N           12.638966  15.207966   7.913034
N           12.638966  15.207966  13.051034
N            0.206034   0.206034   0.206034
N            0.206034   0.206034   5.344034
N            0.206034   0.206034  10.482034
N            0.206034   5.344034   0.206034
N            0.206034   5.344034   5.344034
N            0.206034   5.344034  10.482034
N            0.206034  10.482034   0.206034
N            0.206034  10.482034   5.344034
N            0.206034  10.482034  10.482034
N            5.344034   0.206034   0.206034
N            5.344034   0.206034   5.344034
N            5.344034   0.206034  10.482034
N            5.344034   5.344034   0.206034
N            5.344034   5.344034   5.344034
N            5.344034   5.344034  10.482034
N            5.344034  10.482034   0.206034
N            5.344034  10.482034   5.344034
N            5.344034  10.482034  10.482034
N           10.482034   0.206034   0.206034
N           10.482034   0.206034   5.344034
N           10.482034   0.206034  10.482034
N           10.482034   5.344034   0.206034
N           10.482034   5.344034   5.344034
N           10.482034   5.344034  10.482034
N           10.482034  10.482034   0.206034
N           10.482034  10.482034   5.344034
N           10.482034  10.482034  10.482034
