96
Crystal created from CIF file. Box size:   11.24800   11.24800   11.24800
O            4.957556   3.478444   2.145556
O            4.957556   3.478444   7.769556
O            4.957556   9.102444   2.145556
O            4.957556   9.102444   7.769556
O           10.581556   3.478444   2.145556
O           10.581556   3.478444   7.769556
O           10.581556   9.102444   2.145556
O           10.581556   9.102444   7.769556
O            2.145556   4.957556   3.478444
O            2.145556   4.957556   9.102444
O            2.145556  10.581556   3.478444
O            2.145556  10.581556   9.102444
O            7.769556   4.957556   3.478444
O            7.769556   4.957556   9.102444
O            7.769556  10.581556   3.478444
O            7.769556  10.581556   9.102444
O            3.478444   2.145556   4.957556
O            3.478444   2.145556  10.581556
O            3.478444   7.769556   4.957556
O            3.478444   7.769556  10.581556
O            9.102444   2.145556   4.957556
O            9.102444   2.145556  10.581556
O            9.102444   7.769556   4.957556
O            9.102444   7.769556  10.581556
O            4.957556   4.957556   4.957556
O            4.957556   4.957556  10.581556
O            4.957556  10.581556   4.957556
O            4.957556  10.581556  10.581556
O           10.581556   4.957556   4.957556
O           10.581556   4.957556  10.581556
O           10.581556  10.581556   4.957556
O           10.581556  10.581556  10.581556
O            2.145556   3.478444   0.666444
O            2.145556   3.478444   6.290444
O            2.145556   9.102444   0.666444
O            2.145556   9.102444   6.290444
O            7.769556   3.478444   0.666444
O            7.769556   3.478444   6.290444
O            7.769556   9.102444   0.666444
O            7.769556   9.102444   6.290444
O            0.666444   2.145556   3.478444
O            0.666444   2.145556   9.102444
O            0.666444   7.769556   3.478444
O            0.666444   7.769556   9.102444
O            6.290444   2.145556   3.478444
O            6.290444   2.145556   9.102444
O            6.290444   7.769556   3.478444
O            6.290444   7.769556   9.102444
O            3.478444   0.666444   2.145556
O            3.478444   0.666444   7.769556
O            3.478444   6.290444   2.145556
O            3.478444   6.290444   7.769556
O            9.102444   0.666444   2.145556
O            9.102444   0.666444   7.769556
O            9.102444   6.290444   2.145556
O            9.102444   6.290444   7.769556
O            0.666444   0.666444   0.666444
O            0.666444   0.666444   6.290444
O            0.666444   6.290444   0.666444
O            0.666444   6.290444   6.290444
O            6.290444   0.666444   0.666444
O            6.290444   0.666444   6.290444
O            6.290444   6.290444   0.666444
O            6.290444   6.290444   6.290444
C            2.812000   2.812000   0.000000
C            2.812000   2.812000   5.624000
C            2.812000   8.436000   0.000000
C            2.812000   8.436000   5.624000
C            8.436000   2.812000   0.000000
C            8.436000   2.812000   5.624000
C            8.436000   8.436000   0.000000
C            8.436000   8.436000   5.624000
C            0.000000   2.812000   2.812000
C            0.000000   2.812000   8.436000
C            0.000000   8.436000   2.812000
C            0.000000   8.436000   8.436000
C            5.624000   2.812000   2.812000
C            5.624000   2.812000   8.436000
C            5.624000   8.436000   2.812000
C            5.624000   8.436000   8.436000
C            2.812000   0.000000   2.812000
C            2.812000   0.000000   8.436000
C            2.812000   5.624000   2.812000
C            2.812000   5.624000   8.436000
C            8.436000   0.000000   2.812000
C            8.436000   0.000000   8.436000
C            8.436000   5.624000   2.812000
C            8.436000   5.624000   8.436000
C            0.000000   0.000000   0.000000
C            0.000000   0.000000   5.624000
C            0.000000   5.624000   0.000000
C            0.000000   5.624000   5.624000
C            5.624000   0.000000   0.000000
C            5.624000   0.000000   5.624000
C            5.624000   5.624000   0.000000
C            5.624000   5.624000   5.624000
